ELMER SOLVER (v 9.0) STARTED AT: 2021/02/22 13:51:28
ParCommInit:  Initialize #PEs:            1
MAIN: 
MAIN: =============================================================
MAIN: ElmerSolver finite element software, Welcome!
MAIN: This program is free software licensed under (L)GPL
MAIN: Copyright 1st April 1995 - , CSC - IT Center for Science Ltd.
MAIN: Webpage http://www.csc.fi/elmer, Email elmeradm@csc.fi
MAIN: Version: 9.0 (Rev: e63387d4, Compiled: 2020-11-20)
MAIN:  Running one task without MPI parallelization.
MAIN:  Running with just one thread per task.
MAIN:  MUMPS library linked in.
MAIN:  Lua interpreted linked in.
MAIN: =============================================================
LoadInputFile: Reading only "Run Control" section
MAIN: 
MAIN: 
MAIN: -------------------------------------
MAIN: Reading Model: SIFs/LK_PRE_500a_MB_2.5_OFF.sif
LoadInputFile: Scanning input file: SIFs/LK_PRE_500a_MB_2.5_OFF.sif
LoadInputFile: Scanning only size info
LoadInputFile: First time visiting
LoadInputFile: Reading base load of sif file
OpenIncludeFile: Trying to include file:  "./Data/SurfTopo.dat"
OpenIncludeFile: Trying to include file:  "./Data/SurfTopo.dat"
OpenIncludeFile: Trying to include file:   $SMB_fp
ReadAndTrim: Include file after MATC trimming:   ./Data/EMY_SMB_2.5_OFF.dat
OpenIncludeFile: Trying to include file:  "./Data/BedTopo.dat"
OpenIncludeFile: Trying to include file:  "./Data/BedTopo.dat"
LoadInputFile: Loading input file: SIFs/LK_PRE_500a_MB_2.5_OFF.sif
LoadInputFile: Reading base load of sif file
CheckKeyword:  Unlisted keyword: [zs] in section: [initial condition 2]
OpenIncludeFile: Trying to include file:  "./Data/SurfTopo.dat"
CheckKeyword:  Unlisted keyword: [refzs] in section: [initial condition 2]
OpenIncludeFile: Trying to include file:  "./Data/SurfTopo.dat"
CheckKeyword:  Unlisted keyword: [correct surface] in section: [solver 1]
CheckKeyword:  Unlisted keyword: [minimum height] in section: [solver 1]
CheckKeyword:  Unlisted keyword: [gradient] in section: [solver 2]
CheckKeyword:  Unlisted keyword: [correct surface] in section: [solver 6]
CheckKeyword:  Unlisted keyword: [minimum height] in section: [solver 6]
CheckKeyword:  Unlisted keyword: [limit temperature] in section: [material 1]
CheckKeyword:  Unlisted keyword: [constant temperature] in section: [material 1]
CheckKeyword:  Unlisted keyword: [flow solution passive] in section: [body force 1]
CheckKeyword:  Unlisted keyword: [zs accumulation flux 1] in section: [body force 2]
CheckKeyword:  Unlisted keyword: [zs accumulation flux 2] in section: [body force 2]
OpenIncludeFile: Trying to include file:   $SMB_fp
ReadAndTrim: Include file after MATC trimming:   ./Data/EMY_SMB_2.5_OFF.dat
CheckKeyword:  Unlisted keyword: [compute normals] in section: [boundary condition 1]
CheckKeyword:  Unlisted keyword: [zbed] in section: [boundary condition 1]
OpenIncludeFile: Trying to include file:  "./Data/BedTopo.dat"
OpenIncludeFile: Trying to include file:  "./Data/BedTopo.dat"
CheckKeyword:  Unlisted keyword: [depth] in section: [boundary condition 2]
CheckKeyword:  Unlisted keyword: [depth] in section: [boundary condition 3]
LoadInputFile: Number of BCs: 3
LoadInputFile: Number of Body Forces: 2
LoadInputFile: Number of Initial Conditions: 2
LoadInputFile: Number of Materials: 2
WARNING:: LoadInputFile: Entry missing for: Material 2
LoadInputFile: Number of Equations: 2
LoadInputFile: Number of Solvers: 7
LoadInputFile: Number of Bodies: 2
ExportVertically: Memory allocation done.
ComputeChange: NS (ITER=1) (NRM,RELC): (  1649.4474      2.0000000     ) :: exportvertically
MAIN: 
MAIN: -------------------------------------
MAIN:  Time: 1/250   2.0000000000000000
MAIN: -------------------------------------
MAIN: 
FlowdepthSolver: Memory allocation done.
FlowdepthSolver: Gradient of  -0.1000E+01 applied
ComputeChange: NS (ITER=1) (NRM,RELC): (  182.15675      2.0000000     ) :: flowdepth
ComputeChange: NS (ITER=1) (NRM,RELC): ( 0.29289676E-04  2.0000000     ) :: navier-stokes
ComputeChange: NS (ITER=2) (NRM,RELC): ( 0.36030039E-02  1.9678545     ) :: navier-stokes
ComputeChange: NS (ITER=3) (NRM,RELC): ( 0.91701323E-01  1.8489512     ) :: navier-stokes
ComputeChange: NS (ITER=4) (NRM,RELC): ( 0.80128136      1.5894256     ) :: navier-stokes
ComputeChange: NS (ITER=5) (NRM,RELC): (  3.4119324      1.2394291     ) :: navier-stokes
ComputeChange: NS (ITER=6) (NRM,RELC): (  8.9766226     0.89847707     ) :: navier-stokes
ComputeChange: NS (ITER=7) (NRM,RELC): (  33.395995      1.1526735     ) :: navier-stokes
ComputeChange: NS (ITER=8) (NRM,RELC): (  56.540378     0.51478634     ) :: navier-stokes
ComputeChange: NS (ITER=9) (NRM,RELC): (  62.128224     0.94247131E-01 ) :: navier-stokes
ComputeChange: NS (ITER=10) (NRM,RELC): (  62.315093     0.30120513E-02 ) :: navier-stokes
ComputeChange: NS (ITER=11) (NRM,RELC): (  62.315274     0.31973573E-05 ) :: navier-stokes
ComputeChange: NS (ITER=1) (NRM,RELC): (  1921.4465      2.0000000     ) :: free surface evolution
ComputeChange: NS (ITER=2) (NRM,RELC): (  1921.4465     0.11833463E-15 ) :: free surface evolution
MAIN: 
MAIN: -------------------------------------
MAIN:  Time: 2/250   4.0000000000000000
MAIN: Estimated time left:  9.5 minutes
MAIN: -------------------------------------
MAIN: 
FlowdepthSolver: Gradient of  -0.1000E+01 applied
ComputeChange: NS (ITER=1) (NRM,RELC): (  180.62813     0.84271376E-02 ) :: flowdepth
ComputeChange: NS (ITER=1) (NRM,RELC): (  48.356067     0.59719268     ) :: navier-stokes
ComputeChange: NS (ITER=2) (NRM,RELC): (  48.614950     0.10904136     ) :: navier-stokes
ComputeChange: NS (ITER=3) (NRM,RELC): (  49.571407     0.62504877E-01 ) :: navier-stokes
ComputeChange: NS (ITER=4) (NRM,RELC): (  50.479218     0.41044025E-01 ) :: navier-stokes
ComputeChange: NS (ITER=5) (NRM,RELC): (  51.197231     0.27317764E-01 ) :: navier-stokes
ComputeChange: NS (ITER=6) (NRM,RELC): (  51.724462     0.18207587E-01 ) :: navier-stokes
ComputeChange: NS (ITER=7) (NRM,RELC): (  52.848949     0.35158168E-01 ) :: navier-stokes
ComputeChange: NS (ITER=8) (NRM,RELC): (  52.881240     0.81688705E-03 ) :: navier-stokes
ComputeChange: NS (ITER=9) (NRM,RELC): (  52.881295     0.35403521E-05 ) :: navier-stokes
ComputeChange: NS (ITER=1) (NRM,RELC): (  1918.5724     0.14969192E-02 ) :: free surface evolution
ComputeChange: NS (ITER=2) (NRM,RELC): (  1918.5724      0.0000000     ) :: free surface evolution
MAIN: 
MAIN: -------------------------------------
MAIN:  Time: 3/250   6.0000000000000000
MAIN: Estimated time left:  5.7 minutes
MAIN: -------------------------------------
MAIN: 
FlowdepthSolver: Gradient of  -0.1000E+01 applied
ComputeChange: NS (ITER=1) (NRM,RELC): (  179.62059     0.55935592E-02 ) :: flowdepth
ComputeChange: NS (ITER=1) (NRM,RELC): (  48.229544     0.24941159     ) :: navier-stokes
ComputeChange: NS (ITER=2) (NRM,RELC): (  47.727276     0.95482307E-01 ) :: navier-stokes
ComputeChange: NS (ITER=3) (NRM,RELC): (  48.026053     0.50342149E-01 ) :: navier-stokes
ComputeChange: NS (ITER=4) (NRM,RELC): (  48.435427     0.30960116E-01 ) :: navier-stokes
ComputeChange: NS (ITER=5) (NRM,RELC): (  48.788924     0.20110352E-01 ) :: navier-stokes
ComputeChange: NS (ITER=6) (NRM,RELC): (  49.057607     0.13259325E-01 ) :: navier-stokes
ComputeChange: NS (ITER=7) (NRM,RELC): (  49.641544     0.25310522E-01 ) :: navier-stokes
ComputeChange: NS (ITER=8) (NRM,RELC): (  49.661321     0.56681558E-03 ) :: navier-stokes
ComputeChange: NS (ITER=9) (NRM,RELC): (  49.661368     0.14139731E-04 ) :: navier-stokes
ComputeChange: NS (ITER=10) (NRM,RELC): (  49.661348     0.15994490E-04 ) :: navier-stokes
ComputeChange: NS (ITER=11) (NRM,RELC): (  49.661369     0.17145014E-04 ) :: navier-stokes
ComputeChange: NS (ITER=12) (NRM,RELC): (  49.661347     0.18319002E-04 ) :: navier-stokes
ComputeChange: NS (ITER=13) (NRM,RELC): (  49.661370     0.18704087E-04 ) :: navier-stokes
ComputeChange: NS (ITER=14) (NRM,RELC): (  49.661346     0.19077380E-04 ) :: navier-stokes
ComputeChange: NS (ITER=15) (NRM,RELC): (  49.661370     0.19186080E-04 ) :: navier-stokes
ComputeChange: NS (ITER=16) (NRM,RELC): (  49.661346     0.19290644E-04 ) :: navier-stokes
ComputeChange: NS (ITER=17) (NRM,RELC): (  49.661370     0.19320229E-04 ) :: navier-stokes
ComputeChange: NS (ITER=18) (NRM,RELC): (  49.661346     0.19348643E-04 ) :: navier-stokes
ComputeChange: NS (ITER=19) (NRM,RELC): (  49.661370     0.19356623E-04 ) :: navier-stokes
ComputeChange: NS (ITER=20) (NRM,RELC): (  49.661346     0.19364286E-04 ) :: navier-stokes
ComputeChange: NS (ITER=21) (NRM,RELC): (  49.661370     0.19366434E-04 ) :: navier-stokes
ComputeChange: NS (ITER=22) (NRM,RELC): (  49.661346     0.19368496E-04 ) :: navier-stokes
ComputeChange: NS (ITER=23) (NRM,RELC): (  49.661370     0.19369073E-04 ) :: navier-stokes
ComputeChange: NS (ITER=24) (NRM,RELC): (  49.661346     0.19369628E-04 ) :: navier-stokes
ComputeChange: NS (ITER=25) (NRM,RELC): (  49.661370     0.19369783E-04 ) :: navier-stokes
ComputeChange: NS (ITER=1) (NRM,RELC): (  1916.2367     0.12181814E-02 ) :: free surface evolution
ComputeChange: NS (ITER=2) (NRM,RELC): (  1916.2367      0.0000000     ) :: free surface evolution
MAIN: 
MAIN: -------------------------------------
MAIN:  Time: 4/250   8.0000000000000000
MAIN: Estimated time left: 16.6 minutes
MAIN: -------------------------------------
MAIN: 
FlowdepthSolver: Gradient of  -0.1000E+01 applied
ComputeChange: NS (ITER=1) (NRM,RELC): (  178.91519     0.39349129E-02 ) :: flowdepth
ComputeChange: NS (ITER=1) (NRM,RELC): (  46.381167     0.16983029     ) :: navier-stokes
ComputeChange: NS (ITER=2) (NRM,RELC): (  45.507630     0.83136780E-01 ) :: navier-stokes
ComputeChange: NS (ITER=3) (NRM,RELC): (  45.310091     0.44387921E-01 ) :: navier-stokes
ComputeChange: NS (ITER=4) (NRM,RELC): (  45.301891     0.25141260E-01 ) :: navier-stokes
ComputeChange: NS (ITER=5) (NRM,RELC): (  45.339266     0.14890196E-01 ) :: navier-stokes
ComputeChange: NS (ITER=6) (NRM,RELC): (  45.379867     0.90838728E-02 ) :: navier-stokes
ComputeChange: NS (ITER=7) (NRM,RELC): (  45.477450     0.15526145E-01 ) :: navier-stokes
ComputeChange: NS (ITER=8) (NRM,RELC): (  45.485991     0.33930140E-03 ) :: navier-stokes
ComputeChange: NS (ITER=9) (NRM,RELC): (  45.486007     0.13812864E-05 ) :: navier-stokes
ComputeChange: NS (ITER=1) (NRM,RELC): (  1914.4770     0.91871904E-03 ) :: free surface evolution
ComputeChange: NS (ITER=2) (NRM,RELC): (  1914.4770      0.0000000     ) :: free surface evolution
MAIN: 
MAIN: -------------------------------------
MAIN:  Time: 5/250   10.000000000000000
MAIN: Estimated time left:  6.7 minutes
MAIN: -------------------------------------
MAIN: 
FlowdepthSolver: Gradient of  -0.1000E+01 applied
ComputeChange: NS (ITER=1) (NRM,RELC): (  178.74623     0.94477572E-03 ) :: flowdepth
ComputeChange: NS (ITER=1) (NRM,RELC): (  42.315929     0.16151079     ) :: navier-stokes
ComputeChange: NS (ITER=2) (NRM,RELC): (  41.128490     0.65424908E-01 ) :: navier-stokes
ComputeChange: NS (ITER=3) (NRM,RELC): (  40.513346     0.31125844E-01 ) :: navier-stokes
ComputeChange: NS (ITER=4) (NRM,RELC): (  40.148050     0.17372159E-01 ) :: navier-stokes
ComputeChange: NS (ITER=5) (NRM,RELC): (  39.919783     0.10366871E-01 ) :: navier-stokes
ComputeChange: NS (ITER=6) (NRM,RELC): (  39.773486     0.64060588E-02 ) :: navier-stokes
ComputeChange: NS (ITER=7) (NRM,RELC): (  39.487780     0.11631325E-01 ) :: navier-stokes
ComputeChange: NS (ITER=8) (NRM,RELC): (  39.490898     0.16795784E-03 ) :: navier-stokes
ComputeChange: NS (ITER=9) (NRM,RELC): (  39.490910     0.21913666E-05 ) :: navier-stokes
ComputeChange: NS (ITER=1) (NRM,RELC): (  1913.1694     0.68325602E-03 ) :: free surface evolution
ComputeChange: NS (ITER=2) (NRM,RELC): (  1913.1694      0.0000000     ) :: free surface evolution
MAIN: 
MAIN: -------------------------------------
MAIN:  Time: 6/250   12.000000000000000
MAIN: Estimated time left:  6.9 minutes
MAIN: -------------------------------------
MAIN: 
FlowdepthSolver: Gradient of  -0.1000E+01 applied
ComputeChange: NS (ITER=1) (NRM,RELC): (  178.55250     0.10844374E-02 ) :: flowdepth
ComputeChange: NS (ITER=1) (NRM,RELC): (  38.163183     0.73460307E-01 ) :: navier-stokes
ComputeChange: NS (ITER=2) (NRM,RELC): (  37.475933     0.39038205E-01 ) :: navier-stokes
ComputeChange: NS (ITER=3) (NRM,RELC): (  37.085836     0.22721531E-01 ) :: navier-stokes
ComputeChange: NS (ITER=4) (NRM,RELC): (  36.853868     0.13887402E-01 ) :: navier-stokes
ComputeChange: NS (ITER=5) (NRM,RELC): (  36.711199     0.86249635E-02 ) :: navier-stokes
ComputeChange: NS (ITER=6) (NRM,RELC): (  36.621282     0.54204473E-02 ) :: navier-stokes
ComputeChange: NS (ITER=7) (NRM,RELC): (  36.449990     0.98189553E-02 ) :: navier-stokes
ComputeChange: NS (ITER=8) (NRM,RELC): (  36.452468     0.10824096E-03 ) :: navier-stokes
ComputeChange: NS (ITER=9) (NRM,RELC): (  36.452473     0.10228942E-05 ) :: navier-stokes
ComputeChange: NS (ITER=1) (NRM,RELC): (  1912.1691     0.52298522E-03 ) :: free surface evolution
ComputeChange: NS (ITER=2) (NRM,RELC): (  1912.1691     0.11890877E-15 ) :: free surface evolution
MAIN: 
MAIN: -------------------------------------
MAIN:  Time: 7/250   14.000000000000000
MAIN: Estimated time left:  6.3 minutes
MAIN: -------------------------------------
MAIN: 
FlowdepthSolver: Gradient of  -0.1000E+01 applied
ComputeChange: NS (ITER=1) (NRM,RELC): (  178.28019     0.15262372E-02 ) :: flowdepth
ComputeChange: NS (ITER=1) (NRM,RELC): (  35.670489     0.50918720E-01 ) :: navier-stokes
ComputeChange: NS (ITER=2) (NRM,RELC): (  35.235777     0.22966560E-01 ) :: navier-stokes
ComputeChange: NS (ITER=3) (NRM,RELC): (  34.970907     0.13339273E-01 ) :: navier-stokes
ComputeChange: NS (ITER=4) (NRM,RELC): (  34.803634     0.81819681E-02 ) :: navier-stokes
ComputeChange: NS (ITER=5) (NRM,RELC): (  34.695839     0.51566430E-02 ) :: navier-stokes
ComputeChange: NS (ITER=6) (NRM,RELC): (  34.625552     0.32996386E-02 ) :: navier-stokes
ComputeChange: NS (ITER=7) (NRM,RELC): (  34.486281     0.61540988E-02 ) :: navier-stokes
ComputeChange: NS (ITER=8) (NRM,RELC): (  34.487000     0.34545447E-04 ) :: navier-stokes
ComputeChange: NS (ITER=9) (NRM,RELC): (  34.487001     0.64972756E-06 ) :: navier-stokes
ComputeChange: NS (ITER=1) (NRM,RELC): (  1911.3261     0.44096741E-03 ) :: free surface evolution
ComputeChange: NS (ITER=2) (NRM,RELC): (  1911.3261      0.0000000     ) :: free surface evolution
MAIN: 
MAIN: -------------------------------------
MAIN:  Time: 8/250   16.000000000000000
MAIN: Estimated time left:  6.5 minutes
MAIN: -------------------------------------
MAIN: 
FlowdepthSolver: Gradient of  -0.1000E+01 applied
ComputeChange: NS (ITER=1) (NRM,RELC): (  177.96214     0.17855902E-02 ) :: flowdepth
ComputeChange: NS (ITER=1) (NRM,RELC): (  33.941888     0.29169775E-01 ) :: navier-stokes
ComputeChange: NS (ITER=2) (NRM,RELC): (  33.613140     0.16408212E-01 ) :: navier-stokes
ComputeChange: NS (ITER=3) (NRM,RELC): (  33.406856     0.10087607E-01 ) :: navier-stokes
ComputeChange: NS (ITER=4) (NRM,RELC): (  33.275060     0.63877245E-02 ) :: navier-stokes
ComputeChange: NS (ITER=5) (NRM,RELC): (  33.189882     0.40931001E-02 ) :: navier-stokes
ComputeChange: NS (ITER=6) (NRM,RELC): (  33.134403     0.26388965E-02 ) :: navier-stokes
ComputeChange: NS (ITER=7) (NRM,RELC): (  33.025015     0.51298747E-02 ) :: navier-stokes
ComputeChange: NS (ITER=8) (NRM,RELC): (  33.025575     0.63994201E-04 ) :: navier-stokes
ComputeChange: NS (ITER=9) (NRM,RELC): (  33.025576     0.10165338E-05 ) :: navier-stokes
ComputeChange: NS (ITER=1) (NRM,RELC): (  1910.5179     0.42293896E-03 ) :: free surface evolution
ComputeChange: NS (ITER=2) (NRM,RELC): (  1910.5179     0.23802308E-15 ) :: free surface evolution
MAIN: 
MAIN: -------------------------------------
MAIN:  Time: 9/250   18.000000000000000
MAIN: Estimated time left:  8.2 minutes
MAIN: -------------------------------------
MAIN: 
FlowdepthSolver: Gradient of  -0.1000E+01 applied
ComputeChange: NS (ITER=1) (NRM,RELC): (  177.62586     0.18914362E-02 ) :: flowdepth
ComputeChange: NS (ITER=1) (NRM,RELC): (  32.576236     0.31649740E-01 ) :: navier-stokes
ComputeChange: NS (ITER=2) (NRM,RELC): (  32.326429     0.19252914E-01 ) :: navier-stokes
ComputeChange: NS (ITER=3) (NRM,RELC): (  32.178692     0.11805485E-01 ) :: navier-stokes
ComputeChange: NS (ITER=4) (NRM,RELC): (  32.088773     0.74068571E-02 ) :: navier-stokes
ComputeChange: NS (ITER=5) (NRM,RELC): (  32.032813     0.46412689E-02 ) :: navier-stokes
ComputeChange: NS (ITER=6) (NRM,RELC): (  31.997412     0.29100173E-02 ) :: navier-stokes
ComputeChange: NS (ITER=7) (NRM,RELC): (  31.930459     0.53550602E-02 ) :: navier-stokes
ComputeChange: NS (ITER=8) (NRM,RELC): (  31.931366     0.61034307E-04 ) :: navier-stokes
ComputeChange: NS (ITER=9) (NRM,RELC): (  31.931368     0.44940099E-06 ) :: navier-stokes
ComputeChange: NS (ITER=1) (NRM,RELC): (  1909.7827     0.38488153E-03 ) :: free surface evolution
ComputeChange: NS (ITER=2) (NRM,RELC): (  1909.7827      0.0000000     ) :: free surface evolution
MAIN: 
MAIN: -------------------------------------
MAIN:  Time: 10/250   20.000000000000000
MAIN: Estimated time left: 19.7 minutes
MAIN: -------------------------------------
MAIN: 
FlowdepthSolver: Gradient of  -0.1000E+01 applied
ComputeChange: NS (ITER=1) (NRM,RELC): (  177.35264     0.15393655E-02 ) :: flowdepth
ComputeChange: NS (ITER=1) (NRM,RELC): (  31.534627     0.38579392E-01 ) :: navier-stokes
ComputeChange: NS (ITER=2) (NRM,RELC): (  31.321474     0.14405718E-01 ) :: navier-stokes
ComputeChange: NS (ITER=3) (NRM,RELC): (  31.191014     0.80571505E-02 ) :: navier-stokes
ComputeChange: NS (ITER=4) (NRM,RELC): (  31.108598     0.49107024E-02 ) :: navier-stokes
ComputeChange: NS (ITER=5) (NRM,RELC): (  31.055615     0.30737247E-02 ) :: navier-stokes
ComputeChange: NS (ITER=6) (NRM,RELC): (  31.021193     0.19506338E-02 ) :: navier-stokes
ComputeChange: NS (ITER=7) (NRM,RELC): (  30.953414     0.36771444E-02 ) :: navier-stokes
ComputeChange: NS (ITER=8) (NRM,RELC): (  30.953617     0.17259972E-04 ) :: navier-stokes
ComputeChange: NS (ITER=9) (NRM,RELC): (  30.953618     0.45046069E-06 ) :: navier-stokes
ComputeChange: NS (ITER=1) (NRM,RELC): (  1909.1279     0.34291058E-03 ) :: free surface evolution
ComputeChange: NS (ITER=2) (NRM,RELC): (  1909.1279     0.11909819E-15 ) :: free surface evolution
MAIN: 
MAIN: -------------------------------------
MAIN:  Time: 11/250   22.000000000000000
MAIN: Estimated time left:  8.3 minutes
MAIN: -------------------------------------
MAIN: 
FlowdepthSolver: Gradient of  -0.1000E+01 applied
ComputeChange: NS (ITER=1) (NRM,RELC): (  177.10576     0.13929853E-02 ) :: flowdepth
ComputeChange: NS (ITER=1) (NRM,RELC): (  30.631673     0.20628140E-01 ) :: navier-stokes
ComputeChange: NS (ITER=2) (NRM,RELC): (  30.441735     0.12349968E-01 ) :: navier-stokes
ComputeChange: NS (ITER=3) (NRM,RELC): (  30.323018     0.77127852E-02 ) :: navier-stokes
ComputeChange: NS (ITER=4) (NRM,RELC): (  30.247576     0.49108310E-02 ) :: navier-stokes
ComputeChange: NS (ITER=5) (NRM,RELC): (  30.199106     0.31445654E-02 ) :: navier-stokes
ComputeChange: NS (ITER=6) (NRM,RELC): (  30.167728     0.20172279E-02 ) :: navier-stokes
ComputeChange: NS (ITER=7) (NRM,RELC): (  30.106450     0.38434111E-02 ) :: navier-stokes
ComputeChange: NS (ITER=8) (NRM,RELC): (  30.106750     0.85196547E-04 ) :: navier-stokes
ComputeChange: NS (ITER=9) (NRM,RELC): (  30.106750     0.12830973E-05 ) :: navier-stokes
ComputeChange: NS (ITER=1) (NRM,RELC): (  1908.4767     0.34116965E-03 ) :: free surface evolution
ComputeChange: NS (ITER=2) (NRM,RELC): (  1908.4767      0.0000000     ) :: free surface evolution
MAIN: 
MAIN: -------------------------------------
MAIN:  Time: 12/250   24.000000000000000
MAIN: Estimated time left:  6.3 minutes
MAIN: -------------------------------------
MAIN: 
FlowdepthSolver: Gradient of  -0.1000E+01 applied
ComputeChange: NS (ITER=1) (NRM,RELC): (  176.83004     0.15579884E-02 ) :: flowdepth
ComputeChange: NS (ITER=1) (NRM,RELC): (  29.918229     0.13165459E-01 ) :: navier-stokes
ComputeChange: NS (ITER=2) (NRM,RELC): (  29.802187     0.80736023E-02 ) :: navier-stokes
ComputeChange: NS (ITER=3) (NRM,RELC): (  29.728475     0.50515092E-02 ) :: navier-stokes
ComputeChange: NS (ITER=4) (NRM,RELC): (  29.681058     0.31905233E-02 ) :: navier-stokes
ComputeChange: NS (ITER=5) (NRM,RELC): (  29.650300     0.20260995E-02 ) :: navier-stokes
ComputeChange: NS (ITER=6) (NRM,RELC): (  29.630234     0.12923160E-02 ) :: navier-stokes
ComputeChange: NS (ITER=7) (NRM,RELC): (  29.590623     0.28797553E-02 ) :: navier-stokes
ComputeChange: NS (ITER=8) (NRM,RELC): (  29.590898     0.28064607E-04 ) :: navier-stokes
ComputeChange: NS (ITER=9) (NRM,RELC): (  29.590898     0.45906454E-06 ) :: navier-stokes
ComputeChange: NS (ITER=1) (NRM,RELC): (  1907.7545     0.37849123E-03 ) :: free surface evolution
ComputeChange: NS (ITER=2) (NRM,RELC): (  1907.7545      0.0000000     ) :: free surface evolution
MAIN: 
MAIN: -------------------------------------
MAIN:  Time: 13/250   26.000000000000000
MAIN: Estimated time left:  9.8 minutes
MAIN: -------------------------------------
MAIN: 
FlowdepthSolver: Gradient of  -0.1000E+01 applied
ComputeChange: NS (ITER=1) (NRM,RELC): (  176.57665     0.14340044E-02 ) :: flowdepth
ComputeChange: NS (ITER=1) (NRM,RELC): (  29.237748     0.59734744E-01 ) :: navier-stokes
ComputeChange: NS (ITER=2) (NRM,RELC): (  29.116548     0.24666911E-01 ) :: navier-stokes
ComputeChange: NS (ITER=3) (NRM,RELC): (  29.064667     0.12882800E-01 ) :: navier-stokes
ComputeChange: NS (ITER=4) (NRM,RELC): (  29.040909     0.63885431E-02 ) :: navier-stokes
ComputeChange: NS (ITER=5) (NRM,RELC): (  29.029199     0.34380031E-02 ) :: navier-stokes
ComputeChange: NS (ITER=6) (NRM,RELC): (  29.023116     0.19807017E-02 ) :: navier-stokes
ComputeChange: NS (ITER=7) (NRM,RELC): (  29.014503     0.31672179E-02 ) :: navier-stokes
ComputeChange: NS (ITER=8) (NRM,RELC): (  29.014840     0.42030222E-04 ) :: navier-stokes
ComputeChange: NS (ITER=9) (NRM,RELC): (  29.014840     0.73543698E-06 ) :: navier-stokes
ComputeChange: NS (ITER=1) (NRM,RELC): (  1907.1826     0.29982935E-03 ) :: free surface evolution
ComputeChange: NS (ITER=2) (NRM,RELC): (  1907.1826      0.0000000     ) :: free surface evolution
MAIN: 
MAIN: -------------------------------------
MAIN:  Time: 14/250   28.000000000000000
MAIN: Estimated time left:  8.7 minutes
MAIN: -------------------------------------
MAIN: 
FlowdepthSolver: Gradient of  -0.1000E+01 applied
ComputeChange: NS (ITER=1) (NRM,RELC): (  176.37181     0.11607411E-02 ) :: flowdepth
ComputeChange: NS (ITER=1) (NRM,RELC): (  28.820249     0.22144224E-01 ) :: navier-stokes
ComputeChange: NS (ITER=2) (NRM,RELC): (  28.713744     0.10542364E-01 ) :: navier-stokes
ComputeChange: NS (ITER=3) (NRM,RELC): (  28.648549     0.60197141E-02 ) :: navier-stokes
ComputeChange: NS (ITER=4) (NRM,RELC): (  28.607585     0.35698937E-02 ) :: navier-stokes
ComputeChange: NS (ITER=5) (NRM,RELC): (  28.581435     0.21559236E-02 ) :: navier-stokes
ComputeChange: NS (ITER=6) (NRM,RELC): (  28.564576     0.13185477E-02 ) :: navier-stokes
ComputeChange: NS (ITER=7) (NRM,RELC): (  28.531342     0.22903937E-02 ) :: navier-stokes
ComputeChange: NS (ITER=8) (NRM,RELC): (  28.531421     0.26467108E-04 ) :: navier-stokes
ComputeChange: NS (ITER=9) (NRM,RELC): (  28.531421     0.70362536E-06 ) :: navier-stokes
ComputeChange: NS (ITER=1) (NRM,RELC): (  1906.6620     0.27301490E-03 ) :: free surface evolution
ComputeChange: NS (ITER=2) (NRM,RELC): (  1906.6620      0.0000000     ) :: free surface evolution
MAIN: 
MAIN: -------------------------------------
MAIN:  Time: 15/250   30.000000000000000
MAIN: Estimated time left:  6.5 minutes
MAIN: -------------------------------------
MAIN: 
FlowdepthSolver: Gradient of  -0.1000E+01 applied
ComputeChange: NS (ITER=1) (NRM,RELC): (  176.16106     0.11956607E-02 ) :: flowdepth
ComputeChange: NS (ITER=1) (NRM,RELC): (  28.415029     0.10953268E-01 ) :: navier-stokes
ComputeChange: NS (ITER=2) (NRM,RELC): (  28.345629     0.64080246E-02 ) :: navier-stokes
ComputeChange: NS (ITER=3) (NRM,RELC): (  28.301970     0.39075233E-02 ) :: navier-stokes
ComputeChange: NS (ITER=4) (NRM,RELC): (  28.274082     0.24217919E-02 ) :: navier-stokes
ComputeChange: NS (ITER=5) (NRM,RELC): (  28.256098     0.15108575E-02 ) :: navier-stokes
ComputeChange: NS (ITER=6) (NRM,RELC): (  28.244428     0.94737243E-03 ) :: navier-stokes
ComputeChange: NS (ITER=7) (NRM,RELC): (  28.220961     0.20771229E-02 ) :: navier-stokes
ComputeChange: NS (ITER=8) (NRM,RELC): (  28.221077     0.17877167E-04 ) :: navier-stokes
ComputeChange: NS (ITER=9) (NRM,RELC): (  28.221076     0.16046306E-05 ) :: navier-stokes
ComputeChange: NS (ITER=1) (NRM,RELC): (  1906.1079     0.29065666E-03 ) :: free surface evolution
ComputeChange: NS (ITER=2) (NRM,RELC): (  1906.1079      0.0000000     ) :: free surface evolution
MAIN: 
MAIN: -------------------------------------
MAIN:  Time: 16/250   32.000000000000000
MAIN: Estimated time left:  9.4 minutes
MAIN: -------------------------------------
MAIN: 
FlowdepthSolver: Gradient of  -0.1000E+01 applied
ComputeChange: NS (ITER=1) (NRM,RELC): (  175.93224     0.12997547E-02 ) :: flowdepth
ComputeChange: NS (ITER=1) (NRM,RELC): (  28.102040     0.16468548E-01 ) :: navier-stokes
ComputeChange: NS (ITER=2) (NRM,RELC): (  28.037279     0.82640479E-02 ) :: navier-stokes
ComputeChange: NS (ITER=3) (NRM,RELC): (  27.997602     0.48452583E-02 ) :: navier-stokes
ComputeChange: NS (ITER=4) (NRM,RELC): (  27.972707     0.29418183E-02 ) :: navier-stokes
ComputeChange: NS (ITER=5) (NRM,RELC): (  27.956841     0.18087688E-02 ) :: navier-stokes
ComputeChange: NS (ITER=6) (NRM,RELC): (  27.946625     0.11205297E-02 ) :: navier-stokes
ComputeChange: NS (ITER=7) (NRM,RELC): (  27.926363     0.23692312E-02 ) :: navier-stokes
ComputeChange: NS (ITER=8) (NRM,RELC): (  27.926583     0.27373760E-04 ) :: navier-stokes
ComputeChange: NS (ITER=9) (NRM,RELC): (  27.926584     0.41903605E-06 ) :: navier-stokes
ComputeChange: NS (ITER=1) (NRM,RELC): (  1905.5539     0.29066673E-03 ) :: free surface evolution
ComputeChange: NS (ITER=2) (NRM,RELC): (  1905.5539     0.11932157E-15 ) :: free surface evolution
MAIN: 
MAIN: -------------------------------------
MAIN:  Time: 17/250   34.000000000000000
MAIN: Estimated time left:  8.1 minutes
MAIN: -------------------------------------
MAIN: 
FlowdepthSolver: Gradient of  -0.1000E+01 applied
ComputeChange: NS (ITER=1) (NRM,RELC): (  175.75702     0.99641119E-03 ) :: flowdepth
ComputeChange: NS (ITER=1) (NRM,RELC): (  27.754797     0.40945591E-01 ) :: navier-stokes
ComputeChange: NS (ITER=2) (NRM,RELC): (  27.687266     0.16198808E-01 ) :: navier-stokes
ComputeChange: NS (ITER=3) (NRM,RELC): (  27.652939     0.68731235E-02 ) :: navier-stokes
ComputeChange: NS (ITER=4) (NRM,RELC): (  27.633759     0.33196483E-02 ) :: navier-stokes
ComputeChange: NS (ITER=5) (NRM,RELC): (  27.622452     0.17138394E-02 ) :: navier-stokes
ComputeChange: NS (ITER=6) (NRM,RELC): (  27.615573     0.93234291E-03 ) :: navier-stokes
ComputeChange: NS (ITER=7) (NRM,RELC): (  27.602796     0.14389634E-02 ) :: navier-stokes
ComputeChange: NS (ITER=8) (NRM,RELC): (  27.602882     0.18780417E-04 ) :: navier-stokes
ComputeChange: NS (ITER=9) (NRM,RELC): (  27.602883     0.77164821E-06 ) :: navier-stokes
ComputeChange: NS (ITER=1) (NRM,RELC): (  1905.1041     0.23605955E-03 ) :: free surface evolution
ComputeChange: NS (ITER=2) (NRM,RELC): (  1905.1041      0.0000000     ) :: free surface evolution
MAIN: 
MAIN: -------------------------------------
MAIN:  Time: 18/250   36.000000000000000
MAIN: Estimated time left:  7.5 minutes
MAIN: -------------------------------------
MAIN: 
FlowdepthSolver: Gradient of  -0.1000E+01 applied
ComputeChange: NS (ITER=1) (NRM,RELC): (  175.61867     0.78752967E-03 ) :: flowdepth
ComputeChange: NS (ITER=1) (NRM,RELC): (  27.488545     0.16895841E-01 ) :: navier-stokes
ComputeChange: NS (ITER=2) (NRM,RELC): (  27.427668     0.79456030E-02 ) :: navier-stokes
ComputeChange: NS (ITER=3) (NRM,RELC): (  27.390590     0.40679367E-02 ) :: navier-stokes
ComputeChange: NS (ITER=4) (NRM,RELC): (  27.367231     0.22923364E-02 ) :: navier-stokes
ComputeChange: NS (ITER=5) (NRM,RELC): (  27.352256     0.13533334E-02 ) :: navier-stokes
ComputeChange: NS (ITER=6) (NRM,RELC): (  27.342564     0.82008857E-03 ) :: navier-stokes
ComputeChange: NS (ITER=7) (NRM,RELC): (  27.322711     0.15244319E-02 ) :: navier-stokes
ComputeChange: NS (ITER=8) (NRM,RELC): (  27.322742     0.27603667E-04 ) :: navier-stokes
ComputeChange: NS (ITER=9) (NRM,RELC): (  27.322742     0.47013054E-06 ) :: navier-stokes
ComputeChange: NS (ITER=1) (NRM,RELC): (  1904.6938     0.21542228E-03 ) :: free surface evolution
ComputeChange: NS (ITER=2) (NRM,RELC): (  1904.6938     0.11937545E-15 ) :: free surface evolution
MAIN: 
MAIN: -------------------------------------
MAIN:  Time: 19/250   38.000000000000000
MAIN: Estimated time left:  9.1 minutes
MAIN: -------------------------------------
MAIN: 
FlowdepthSolver: Gradient of  -0.1000E+01 applied
ComputeChange: NS (ITER=1) (NRM,RELC): (  175.47310     0.82922558E-03 ) :: flowdepth
ComputeChange: NS (ITER=1) (NRM,RELC): (  27.258601     0.75164506E-02 ) :: navier-stokes
ComputeChange: NS (ITER=2) (NRM,RELC): (  27.220226     0.40059206E-02 ) :: navier-stokes
ComputeChange: NS (ITER=3) (NRM,RELC): (  27.195963     0.23189604E-02 ) :: navier-stokes
ComputeChange: NS (ITER=4) (NRM,RELC): (  27.180378     0.14005889E-02 ) :: navier-stokes
ComputeChange: NS (ITER=5) (NRM,RELC): (  27.170280     0.86173530E-03 ) :: navier-stokes
ComputeChange: NS (ITER=6) (NRM,RELC): (  27.149644     0.17909844E-02 ) :: navier-stokes
ComputeChange: NS (ITER=7) (NRM,RELC): (  27.149706     0.17304653E-04 ) :: navier-stokes
ComputeChange: NS (ITER=8) (NRM,RELC): (  27.149706     0.25471266E-06 ) :: navier-stokes
ComputeChange: NS (ITER=1) (NRM,RELC): (  1904.2643     0.22551227E-03 ) :: free surface evolution
ComputeChange: NS (ITER=2) (NRM,RELC): (  1904.2643     0.11940237E-15 ) :: free surface evolution
MAIN: 
MAIN: -------------------------------------
MAIN:  Time: 20/250   40.000000000000000
MAIN: Estimated time left:  6.5 minutes
MAIN: -------------------------------------
MAIN: 
FlowdepthSolver: Gradient of  -0.1000E+01 applied
ComputeChange: NS (ITER=1) (NRM,RELC): (  175.30851     0.93841729E-03 ) :: flowdepth
ComputeChange: NS (ITER=1) (NRM,RELC): (  27.115138     0.49332068E-02 ) :: navier-stokes
ComputeChange: NS (ITER=2) (NRM,RELC): (  27.091817     0.21584212E-02 ) :: navier-stokes
ComputeChange: NS (ITER=3) (NRM,RELC): (  27.076444     0.11899765E-02 ) :: navier-stokes
ComputeChange: NS (ITER=4) (NRM,RELC): (  27.066296     0.71298825E-03 ) :: navier-stokes
ComputeChange: NS (ITER=5) (NRM,RELC): (  27.045013     0.15771363E-02 ) :: navier-stokes
ComputeChange: NS (ITER=6) (NRM,RELC): (  27.045080     0.12532176E-04 ) :: navier-stokes
ComputeChange: NS (ITER=7) (NRM,RELC): (  27.045080     0.52924466E-06 ) :: navier-stokes
ComputeChange: NS (ITER=1) (NRM,RELC): (  1903.7608     0.26442901E-03 ) :: free surface evolution
ComputeChange: NS (ITER=2) (NRM,RELC): (  1903.7608      0.0000000     ) :: free surface evolution
MAIN: 
MAIN: -------------------------------------
MAIN:  Time: 21/250   42.000000000000000
MAIN: Estimated time left:  6.0 minutes
MAIN: -------------------------------------
MAIN: 
FlowdepthSolver: Gradient of  -0.1000E+01 applied
ComputeChange: NS (ITER=1) (NRM,RELC): (  175.14740     0.91939407E-03 ) :: flowdepth
ComputeChange: NS (ITER=1) (NRM,RELC): (  26.960972     0.19067699E-01 ) :: navier-stokes
ComputeChange: NS (ITER=2) (NRM,RELC): (  26.917927     0.83901143E-02 ) :: navier-stokes
ComputeChange: NS (ITER=3) (NRM,RELC): (  26.891665     0.46093658E-02 ) :: navier-stokes
ComputeChange: NS (ITER=4) (NRM,RELC): (  26.875135     0.26866699E-02 ) :: navier-stokes
ComputeChange: NS (ITER=5) (NRM,RELC): (  26.864551     0.16007167E-02 ) :: navier-stokes
ComputeChange: NS (ITER=6) (NRM,RELC): (  26.857708     0.96227838E-03 ) :: navier-stokes
ComputeChange: NS (ITER=7) (NRM,RELC): (  26.843439     0.18491460E-02 ) :: navier-stokes
ComputeChange: NS (ITER=8) (NRM,RELC): (  26.843533     0.24650191E-04 ) :: navier-stokes
ComputeChange: NS (ITER=9) (NRM,RELC): (  26.843533     0.54250829E-06 ) :: navier-stokes
ComputeChange: NS (ITER=1) (NRM,RELC): (  1903.2862     0.24931284E-03 ) :: free surface evolution
ComputeChange: NS (ITER=2) (NRM,RELC): (  1903.2862      0.0000000     ) :: free surface evolution
MAIN: 
MAIN: -------------------------------------
MAIN:  Time: 22/250   44.000000000000000
MAIN: Estimated time left:  6.1 minutes
MAIN: -------------------------------------
MAIN: 
FlowdepthSolver: Gradient of  -0.1000E+01 applied
ComputeChange: NS (ITER=1) (NRM,RELC): (  175.02975     0.67198180E-03 ) :: flowdepth
ComputeChange: NS (ITER=1) (NRM,RELC): (  26.757079     0.23901953E-01 ) :: navier-stokes
ComputeChange: NS (ITER=2) (NRM,RELC): (  26.712976     0.97609707E-02 ) :: navier-stokes
ComputeChange: NS (ITER=3) (NRM,RELC): (  26.686612     0.48220943E-02 ) :: navier-stokes
ComputeChange: NS (ITER=4) (NRM,RELC): (  26.670260     0.25275172E-02 ) :: navier-stokes
ComputeChange: NS (ITER=5) (NRM,RELC): (  26.659886     0.13828511E-02 ) :: navier-stokes
ComputeChange: NS (ITER=6) (NRM,RELC): (  26.653216     0.78487449E-03 ) :: navier-stokes
ComputeChange: NS (ITER=7) (NRM,RELC): (  26.639352     0.13079203E-02 ) :: navier-stokes
ComputeChange: NS (ITER=8) (NRM,RELC): (  26.639423     0.17118923E-04 ) :: navier-stokes
ComputeChange: NS (ITER=9) (NRM,RELC): (  26.639424     0.10653453E-05 ) :: navier-stokes
ComputeChange: NS (ITER=1) (NRM,RELC): (  1902.8902     0.20808499E-03 ) :: free surface evolution
ComputeChange: NS (ITER=2) (NRM,RELC): (  1902.8902      0.0000000     ) :: free surface evolution
MAIN: 
MAIN: -------------------------------------
MAIN:  Time: 23/250   46.000000000000000
MAIN: Estimated time left:  5.8 minutes
MAIN: -------------------------------------
MAIN: 
FlowdepthSolver: Gradient of  -0.1000E+01 applied
ComputeChange: NS (ITER=1) (NRM,RELC): (  174.93777     0.52562284E-03 ) :: flowdepth
ComputeChange: NS (ITER=1) (NRM,RELC): (  26.577988     0.12874596E-01 ) :: navier-stokes
ComputeChange: NS (ITER=2) (NRM,RELC): (  26.545072     0.47573734E-02 ) :: navier-stokes
ComputeChange: NS (ITER=3) (NRM,RELC): (  26.524860     0.22104383E-02 ) :: navier-stokes
ComputeChange: NS (ITER=4) (NRM,RELC): (  26.511976     0.11950960E-02 ) :: navier-stokes
ComputeChange: NS (ITER=5) (NRM,RELC): (  26.503607     0.69777139E-03 ) :: navier-stokes
ComputeChange: NS (ITER=6) (NRM,RELC): (  26.485934     0.12663543E-02 ) :: navier-stokes
ComputeChange: NS (ITER=7) (NRM,RELC): (  26.485958     0.13157628E-04 ) :: navier-stokes
ComputeChange: NS (ITER=8) (NRM,RELC): (  26.485959     0.67614598E-06 ) :: navier-stokes
ComputeChange: NS (ITER=1) (NRM,RELC): (  1902.5267     0.19106019E-03 ) :: free surface evolution
ComputeChange: NS (ITER=2) (NRM,RELC): (  1902.5267     0.11951142E-15 ) :: free surface evolution
MAIN: 
MAIN: -------------------------------------
MAIN:  Time: 24/250   48.000000000000000
MAIN: Estimated time left:  5.0 minutes
MAIN: -------------------------------------
MAIN: 
FlowdepthSolver: Gradient of  -0.1000E+01 applied
ComputeChange: NS (ITER=1) (NRM,RELC): (  174.84659     0.52137538E-03 ) :: flowdepth
ComputeChange: NS (ITER=1) (NRM,RELC): (  26.445355     0.65880801E-02 ) :: navier-stokes
ComputeChange: NS (ITER=2) (NRM,RELC): (  26.421482     0.29723633E-02 ) :: navier-stokes
ComputeChange: NS (ITER=3) (NRM,RELC): (  26.406412     0.15386820E-02 ) :: navier-stokes
ComputeChange: NS (ITER=4) (NRM,RELC): (  26.396698     0.87851773E-03 ) :: navier-stokes
ComputeChange: NS (ITER=5) (NRM,RELC): (  26.376680     0.15845850E-02 ) :: navier-stokes
ComputeChange: NS (ITER=6) (NRM,RELC): (  26.376719     0.29945068E-04 ) :: navier-stokes
ComputeChange: NS (ITER=7) (NRM,RELC): (  26.376719     0.28503158E-06 ) :: navier-stokes
ComputeChange: NS (ITER=1) (NRM,RELC): (  1902.1700     0.18747966E-03 ) :: free surface evolution
ComputeChange: NS (ITER=2) (NRM,RELC): (  1902.1700      0.0000000     ) :: free surface evolution
MAIN: 
MAIN: -------------------------------------
MAIN:  Time: 25/250   50.000000000000000
MAIN: Estimated time left:  4.1 minutes
MAIN: -------------------------------------
MAIN: 
FlowdepthSolver: Gradient of  -0.1000E+01 applied
ComputeChange: NS (ITER=1) (NRM,RELC): (  174.74490     0.58174505E-03 ) :: flowdepth
ComputeChange: NS (ITER=1) (NRM,RELC): (  26.350327     0.27281498E-02 ) :: navier-stokes
ComputeChange: NS (ITER=2) (NRM,RELC): (  26.333005     0.14983635E-02 ) :: navier-stokes
ComputeChange: NS (ITER=3) (NRM,RELC): (  26.321669     0.90114471E-03 ) :: navier-stokes
ComputeChange: NS (ITER=4) (NRM,RELC): (  26.298222     0.17340714E-02 ) :: navier-stokes
ComputeChange: NS (ITER=5) (NRM,RELC): (  26.298260     0.11432354E-04 ) :: navier-stokes
ComputeChange: NS (ITER=6) (NRM,RELC): (  26.298260     0.51721345E-06 ) :: navier-stokes
ComputeChange: NS (ITER=1) (NRM,RELC): (  1901.7928     0.19834021E-03 ) :: free surface evolution
ComputeChange: NS (ITER=2) (NRM,RELC): (  1901.7928     0.11955754E-15 ) :: free surface evolution
MAIN: 
MAIN: -------------------------------------
MAIN:  Time: 26/250   52.000000000000000
MAIN: Estimated time left:  3.7 minutes
MAIN: -------------------------------------
MAIN: 
FlowdepthSolver: Gradient of  -0.1000E+01 applied
ComputeChange: NS (ITER=1) (NRM,RELC): (  174.63509     0.62858339E-03 ) :: flowdepth
ComputeChange: NS (ITER=1) (NRM,RELC): (  26.280056     0.30974401E-02 ) :: navier-stokes
ComputeChange: NS (ITER=2) (NRM,RELC): (  26.267264     0.14102997E-02 ) :: navier-stokes
ComputeChange: NS (ITER=3) (NRM,RELC): (  26.258733     0.78880758E-03 ) :: navier-stokes
ComputeChange: NS (ITER=4) (NRM,RELC): (  26.240395     0.14694949E-02 ) :: navier-stokes
ComputeChange: NS (ITER=5) (NRM,RELC): (  26.240436     0.11830721E-04 ) :: navier-stokes
ComputeChange: NS (ITER=6) (NRM,RELC): (  26.240436     0.77320104E-06 ) :: navier-stokes
ComputeChange: NS (ITER=1) (NRM,RELC): (  1901.3723     0.22112394E-03 ) :: free surface evolution
ComputeChange: NS (ITER=2) (NRM,RELC): (  1901.3723     0.11958398E-15 ) :: free surface evolution
MAIN: 
MAIN: -------------------------------------
MAIN:  Time: 27/250   54.000000000000000
MAIN: Estimated time left:  3.6 minutes
MAIN: -------------------------------------
MAIN: 
FlowdepthSolver: Gradient of  -0.1000E+01 applied
ComputeChange: NS (ITER=1) (NRM,RELC): (  174.52223     0.64649150E-03 ) :: flowdepth
ComputeChange: NS (ITER=1) (NRM,RELC): (  26.226335     0.27847488E-02 ) :: navier-stokes
ComputeChange: NS (ITER=2) (NRM,RELC): (  26.215995     0.11657996E-02 ) :: navier-stokes
ComputeChange: NS (ITER=3) (NRM,RELC): (  26.209030     0.61994374E-03 ) :: navier-stokes
ComputeChange: NS (ITER=4) (NRM,RELC): (  26.193596     0.11850151E-02 ) :: navier-stokes
ComputeChange: NS (ITER=5) (NRM,RELC): (  26.193623     0.13270821E-04 ) :: navier-stokes
ComputeChange: NS (ITER=6) (NRM,RELC): (  26.193623     0.80752714E-06 ) :: navier-stokes
ComputeChange: NS (ITER=1) (NRM,RELC): (  1900.9014     0.24770675E-03 ) :: free surface evolution
ComputeChange: NS (ITER=2) (NRM,RELC): (  1900.9014      0.0000000     ) :: free surface evolution
MAIN: 
MAIN: -------------------------------------
MAIN:  Time: 28/250   56.000000000000000
MAIN: Estimated time left:  3.4 minutes
MAIN: -------------------------------------
MAIN: 
FlowdepthSolver: Gradient of  -0.1000E+01 applied
ComputeChange: NS (ITER=1) (NRM,RELC): (  174.41086     0.63832780E-03 ) :: flowdepth
ComputeChange: NS (ITER=1) (NRM,RELC): (  26.172091     0.40850965E-02 ) :: navier-stokes
ComputeChange: NS (ITER=2) (NRM,RELC): (  26.157720     0.15113923E-02 ) :: navier-stokes
ComputeChange: NS (ITER=3) (NRM,RELC): (  26.148055     0.80824824E-03 ) :: navier-stokes
ComputeChange: NS (ITER=4) (NRM,RELC): (  26.127014     0.14802333E-02 ) :: navier-stokes
ComputeChange: NS (ITER=5) (NRM,RELC): (  26.127038     0.14574579E-04 ) :: navier-stokes
ComputeChange: NS (ITER=6) (NRM,RELC): (  26.127038     0.73249790E-06 ) :: navier-stokes
ComputeChange: NS (ITER=1) (NRM,RELC): (  1900.4069     0.26016225E-03 ) :: free surface evolution
ComputeChange: NS (ITER=2) (NRM,RELC): (  1900.4069      0.0000000     ) :: free surface evolution
MAIN: 
MAIN: -------------------------------------
MAIN:  Time: 29/250   58.000000000000000
MAIN: Estimated time left:  3.5 minutes
MAIN: -------------------------------------
MAIN: 
FlowdepthSolver: Gradient of  -0.1000E+01 applied
ComputeChange: NS (ITER=1) (NRM,RELC): (  174.31472     0.55141644E-03 ) :: flowdepth
ComputeChange: NS (ITER=1) (NRM,RELC): (  26.081180     0.14180227E-01 ) :: navier-stokes
ComputeChange: NS (ITER=2) (NRM,RELC): (  26.055241     0.59566143E-02 ) :: navier-stokes
ComputeChange: NS (ITER=3) (NRM,RELC): (  26.038778     0.32230882E-02 ) :: navier-stokes
ComputeChange: NS (ITER=4) (NRM,RELC): (  26.028171     0.18440986E-02 ) :: navier-stokes
ComputeChange: NS (ITER=5) (NRM,RELC): (  26.021269     0.10739995E-02 ) :: navier-stokes
ComputeChange: NS (ITER=6) (NRM,RELC): (  26.016751     0.63093625E-03 ) :: navier-stokes
ComputeChange: NS (ITER=7) (NRM,RELC): (  26.006568     0.11504427E-02 ) :: navier-stokes
ComputeChange: NS (ITER=8) (NRM,RELC): (  26.006588     0.19304757E-04 ) :: navier-stokes
ComputeChange: NS (ITER=9) (NRM,RELC): (  26.006588     0.73489453E-06 ) :: navier-stokes
ComputeChange: NS (ITER=1) (NRM,RELC): (  1899.9672     0.23140860E-03 ) :: free surface evolution
ComputeChange: NS (ITER=2) (NRM,RELC): (  1899.9672      0.0000000     ) :: free surface evolution
MAIN: 
MAIN: -------------------------------------
MAIN:  Time: 30/250   60.000000000000000
MAIN: Estimated time left:  5.1 minutes
MAIN: -------------------------------------
MAIN: 
FlowdepthSolver: Gradient of  -0.1000E+01 applied
ComputeChange: NS (ITER=1) (NRM,RELC): (  174.23399     0.46322853E-03 ) :: flowdepth
ComputeChange: NS (ITER=1) (NRM,RELC): (  25.977318     0.89678698E-02 ) :: navier-stokes
ComputeChange: NS (ITER=2) (NRM,RELC): (  25.959427     0.37561469E-02 ) :: navier-stokes
ComputeChange: NS (ITER=3) (NRM,RELC): (  25.947814     0.19328087E-02 ) :: navier-stokes
ComputeChange: NS (ITER=4) (NRM,RELC): (  25.940195     0.10644073E-02 ) :: navier-stokes
ComputeChange: NS (ITER=5) (NRM,RELC): (  25.935165     0.61421873E-03 ) :: navier-stokes
ComputeChange: NS (ITER=6) (NRM,RELC): (  25.923786     0.10955290E-02 ) :: navier-stokes
ComputeChange: NS (ITER=7) (NRM,RELC): (  25.923810     0.99855838E-05 ) :: navier-stokes
ComputeChange: NS (ITER=1) (NRM,RELC): (  1899.5739     0.20704597E-03 ) :: free surface evolution
ComputeChange: NS (ITER=2) (NRM,RELC): (  1899.5739      0.0000000     ) :: free surface evolution
MAIN: 
MAIN: -------------------------------------
MAIN:  Time: 31/250   62.000000000000000
MAIN: Estimated time left:  4.5 minutes
MAIN: -------------------------------------
MAIN: 
FlowdepthSolver: Gradient of  -0.1000E+01 applied
ComputeChange: NS (ITER=1) (NRM,RELC): (  174.16552     0.39304047E-03 ) :: flowdepth
ComputeChange: NS (ITER=1) (NRM,RELC): (  25.900582     0.69206528E-02 ) :: navier-stokes
ComputeChange: NS (ITER=2) (NRM,RELC): (  25.886275     0.23955070E-02 ) :: navier-stokes
ComputeChange: NS (ITER=3) (NRM,RELC): (  25.876989     0.10586580E-02 ) :: navier-stokes
ComputeChange: NS (ITER=4) (NRM,RELC): (  25.870889     0.54571655E-03 ) :: navier-stokes
ComputeChange: NS (ITER=5) (NRM,RELC): (  25.857440     0.94297795E-03 ) :: navier-stokes
ComputeChange: NS (ITER=6) (NRM,RELC): (  25.857452     0.78134230E-05 ) :: navier-stokes
ComputeChange: NS (ITER=1) (NRM,RELC): (  1899.2080     0.19262257E-03 ) :: free surface evolution
ComputeChange: NS (ITER=2) (NRM,RELC): (  1899.2080     0.11972026E-15 ) :: free surface evolution
MAIN: 
MAIN: -------------------------------------
MAIN:  Time: 32/250   64.000000000000000
MAIN: Estimated time left:  4.4 minutes
MAIN: -------------------------------------
MAIN: 
FlowdepthSolver: Gradient of  -0.1000E+01 applied
ComputeChange: NS (ITER=1) (NRM,RELC): (  174.10275     0.36048837E-03 ) :: flowdepth
ComputeChange: NS (ITER=1) (NRM,RELC): (  25.838190     0.45942658E-02 ) :: navier-stokes
ComputeChange: NS (ITER=2) (NRM,RELC): (  25.826078     0.15249705E-02 ) :: navier-stokes
ComputeChange: NS (ITER=3) (NRM,RELC): (  25.818221     0.70009989E-03 ) :: navier-stokes
ComputeChange: NS (ITER=4) (NRM,RELC): (  25.801441     0.11361702E-02 ) :: navier-stokes
ComputeChange: NS (ITER=5) (NRM,RELC): (  25.801459     0.13328466E-04 ) :: navier-stokes
ComputeChange: NS (ITER=6) (NRM,RELC): (  25.801459     0.58091505E-06 ) :: navier-stokes
ComputeChange: NS (ITER=1) (NRM,RELC): (  1898.8565     0.18507677E-03 ) :: free surface evolution
ComputeChange: NS (ITER=2) (NRM,RELC): (  1898.8565      0.0000000     ) :: free surface evolution
MAIN: 
MAIN: -------------------------------------
MAIN:  Time: 33/250   66.000000000000000
MAIN: Estimated time left:  5.0 minutes
MAIN: -------------------------------------
MAIN: 
FlowdepthSolver: Gradient of  -0.1000E+01 applied
ComputeChange: NS (ITER=1) (NRM,RELC): (  174.04055     0.35730567E-03 ) :: flowdepth
ComputeChange: NS (ITER=1) (NRM,RELC): (  25.785249     0.27916962E-02 ) :: navier-stokes
ComputeChange: NS (ITER=2) (NRM,RELC): (  25.774726     0.10399424E-02 ) :: navier-stokes
ComputeChange: NS (ITER=3) (NRM,RELC): (  25.767852     0.53779307E-03 ) :: navier-stokes
ComputeChange: NS (ITER=4) (NRM,RELC): (  25.752927     0.99486008E-03 ) :: navier-stokes
ComputeChange: NS (ITER=5) (NRM,RELC): (  25.752931     0.11953633E-04 ) :: navier-stokes
ComputeChange: NS (ITER=6) (NRM,RELC): (  25.752931     0.52384783E-06 ) :: navier-stokes
ComputeChange: NS (ITER=1) (NRM,RELC): (  1898.5126     0.18112807E-03 ) :: free surface evolution
ComputeChange: NS (ITER=2) (NRM,RELC): (  1898.5126     0.11976411E-15 ) :: free surface evolution
MAIN: 
MAIN: -------------------------------------
MAIN:  Time: 34/250   68.000000000000000
MAIN: Estimated time left:  4.4 minutes
MAIN: -------------------------------------
MAIN: 
FlowdepthSolver: Gradient of  -0.1000E+01 applied
ComputeChange: NS (ITER=1) (NRM,RELC): (  173.97673     0.36676490E-03 ) :: flowdepth
ComputeChange: NS (ITER=1) (NRM,RELC): (  25.739343     0.16792925E-02 ) :: navier-stokes
ComputeChange: NS (ITER=2) (NRM,RELC): (  25.730204     0.77688176E-03 ) :: navier-stokes
ComputeChange: NS (ITER=3) (NRM,RELC): (  25.710868     0.12975390E-02 ) :: navier-stokes
ComputeChange: NS (ITER=4) (NRM,RELC): (  25.710883     0.10382230E-04 ) :: navier-stokes
ComputeChange: NS (ITER=5) (NRM,RELC): (  25.710883     0.46730563E-06 ) :: navier-stokes
ComputeChange: NS (ITER=1) (NRM,RELC): (  1898.1708     0.18007195E-03 ) :: free surface evolution
ComputeChange: NS (ITER=2) (NRM,RELC): (  1898.1708      0.0000000     ) :: free surface evolution
MAIN: 
MAIN: -------------------------------------
MAIN:  Time: 35/250   70.000000000000000
MAIN: Estimated time left:  3.1 minutes
MAIN: -------------------------------------
MAIN: 
FlowdepthSolver: Gradient of  -0.1000E+01 applied
ComputeChange: NS (ITER=1) (NRM,RELC): (  173.91104     0.37764533E-03 ) :: flowdepth
ComputeChange: NS (ITER=1) (NRM,RELC): (  25.699556     0.10785911E-02 ) :: navier-stokes
ComputeChange: NS (ITER=2) (NRM,RELC): (  25.691668     0.58453029E-03 ) :: navier-stokes
ComputeChange: NS (ITER=3) (NRM,RELC): (  25.674613     0.11152908E-02 ) :: navier-stokes
ComputeChange: NS (ITER=4) (NRM,RELC): (  25.674620     0.55058199E-05 ) :: navier-stokes
ComputeChange: NS (ITER=1) (NRM,RELC): (  1897.8250     0.18215828E-03 ) :: free surface evolution
ComputeChange: NS (ITER=2) (NRM,RELC): (  1897.8250      0.0000000     ) :: free surface evolution
MAIN: 
MAIN: -------------------------------------
MAIN:  Time: 36/250   72.000000000000000
MAIN: Estimated time left:  2.3 minutes
MAIN: -------------------------------------
MAIN: 
FlowdepthSolver: Gradient of  -0.1000E+01 applied
ComputeChange: NS (ITER=1) (NRM,RELC): (  173.84397     0.38575093E-03 ) :: flowdepth
ComputeChange: NS (ITER=1) (NRM,RELC): (  25.665121     0.81463269E-03 ) :: navier-stokes
ComputeChange: NS (ITER=2) (NRM,RELC): (  25.643149     0.13343696E-02 ) :: navier-stokes
ComputeChange: NS (ITER=3) (NRM,RELC): (  25.643167     0.51640064E-05 ) :: navier-stokes
ComputeChange: NS (ITER=1) (NRM,RELC): (  1897.4700     0.18708642E-03 ) :: free surface evolution
ComputeChange: NS (ITER=2) (NRM,RELC): (  1897.4700      0.0000000     ) :: free surface evolution
MAIN: 
MAIN: -------------------------------------
MAIN:  Time: 37/250   74.000000000000000
MAIN: Estimated time left:  1.8 minutes
MAIN: -------------------------------------
MAIN: 
FlowdepthSolver: Gradient of  -0.1000E+01 applied
ComputeChange: NS (ITER=1) (NRM,RELC): (  173.77614     0.39026652E-03 ) :: flowdepth
ComputeChange: NS (ITER=1) (NRM,RELC): (  25.635093     0.82153508E-03 ) :: navier-stokes
ComputeChange: NS (ITER=2) (NRM,RELC): (  25.615543     0.11627107E-02 ) :: navier-stokes
ComputeChange: NS (ITER=3) (NRM,RELC): (  25.615557     0.64653160E-05 ) :: navier-stokes
ComputeChange: NS (ITER=1) (NRM,RELC): (  1897.1021     0.19389592E-03 ) :: free surface evolution
ComputeChange: NS (ITER=2) (NRM,RELC): (  1897.1021      0.0000000     ) :: free surface evolution
MAIN: 
MAIN: -------------------------------------
MAIN:  Time: 38/250   76.000000000000000
MAIN: Estimated time left:  1.8 minutes
MAIN: -------------------------------------
MAIN: 
FlowdepthSolver: Gradient of  -0.1000E+01 applied
ComputeChange: NS (ITER=1) (NRM,RELC): (  173.70815     0.39132585E-03 ) :: flowdepth
ComputeChange: NS (ITER=1) (NRM,RELC): (  25.608603     0.93492352E-03 ) :: navier-stokes
ComputeChange: NS (ITER=2) (NRM,RELC): (  25.591021     0.11019647E-02 ) :: navier-stokes
ComputeChange: NS (ITER=3) (NRM,RELC): (  25.591035     0.10008000E-04 ) :: navier-stokes
ComputeChange: NS (ITER=4) (NRM,RELC): (  25.591035     0.36140842E-06 ) :: navier-stokes
ComputeChange: NS (ITER=1) (NRM,RELC): (  1896.7201     0.20142629E-03 ) :: free surface evolution
ComputeChange: NS (ITER=2) (NRM,RELC): (  1896.7201      0.0000000     ) :: free surface evolution
MAIN: 
MAIN: -------------------------------------
MAIN:  Time: 39/250   78.000000000000000
MAIN: Estimated time left:  2.3 minutes
MAIN: -------------------------------------
MAIN: 
FlowdepthSolver: Gradient of  -0.1000E+01 applied
ComputeChange: NS (ITER=1) (NRM,RELC): (  173.64053     0.38932026E-03 ) :: flowdepth
ComputeChange: NS (ITER=1) (NRM,RELC): (  25.584973     0.10285426E-02 ) :: navier-stokes
ComputeChange: NS (ITER=2) (NRM,RELC): (  25.580214     0.41847900E-03 ) :: navier-stokes
ComputeChange: NS (ITER=3) (NRM,RELC): (  25.569034     0.75419599E-03 ) :: navier-stokes
ComputeChange: NS (ITER=4) (NRM,RELC): (  25.569033     0.64986911E-05 ) :: navier-stokes
ComputeChange: NS (ITER=1) (NRM,RELC): (  1896.3242     0.20870492E-03 ) :: free surface evolution
ComputeChange: NS (ITER=2) (NRM,RELC): (  1896.3242     0.23980464E-15 ) :: free surface evolution
MAIN: 
MAIN: -------------------------------------
MAIN:  Time: 40/250   80.000000000000000
MAIN: Estimated time left:  2.2 minutes
MAIN: -------------------------------------
MAIN: 
FlowdepthSolver: Gradient of  -0.1000E+01 applied
ComputeChange: NS (ITER=1) (NRM,RELC): (  173.57373     0.38480522E-03 ) :: flowdepth
ComputeChange: NS (ITER=1) (NRM,RELC): (  25.563681     0.10730856E-02 ) :: navier-stokes
ComputeChange: NS (ITER=2) (NRM,RELC): (  25.559375     0.42725469E-03 ) :: navier-stokes
ComputeChange: NS (ITER=3) (NRM,RELC): (  25.549095     0.73573023E-03 ) :: navier-stokes
ComputeChange: NS (ITER=4) (NRM,RELC): (  25.549094     0.65940233E-05 ) :: navier-stokes
ComputeChange: NS (ITER=1) (NRM,RELC): (  1895.9164     0.21509688E-03 ) :: free surface evolution
ComputeChange: NS (ITER=2) (NRM,RELC): (  1895.9164     0.11992811E-15 ) :: free surface evolution
MAIN: 
MAIN: -------------------------------------
MAIN:  Time: 41/250   82.000000000000000
MAIN: Estimated time left:  2.4 minutes
MAIN: -------------------------------------
MAIN: 
FlowdepthSolver: Gradient of  -0.1000E+01 applied
ComputeChange: NS (ITER=1) (NRM,RELC): (  173.50806     0.37840792E-03 ) :: flowdepth
ComputeChange: NS (ITER=1) (NRM,RELC): (  25.544302     0.10782752E-02 ) :: navier-stokes
ComputeChange: NS (ITER=2) (NRM,RELC): (  25.540366     0.43075172E-03 ) :: navier-stokes
ComputeChange: NS (ITER=3) (NRM,RELC): (  25.530837     0.72663715E-03 ) :: navier-stokes
ComputeChange: NS (ITER=4) (NRM,RELC): (  25.530836     0.62604668E-05 ) :: navier-stokes
ComputeChange: NS (ITER=1) (NRM,RELC): (  1895.4988     0.22028448E-03 ) :: free surface evolution
ComputeChange: NS (ITER=2) (NRM,RELC): (  1895.4988      0.0000000     ) :: free surface evolution
MAIN: 
MAIN: -------------------------------------
MAIN:  Time: 42/250   84.000000000000000
MAIN: Estimated time left:  2.3 minutes
MAIN: -------------------------------------
MAIN: 
FlowdepthSolver: Gradient of  -0.1000E+01 applied
ComputeChange: NS (ITER=1) (NRM,RELC): (  173.44375     0.37071334E-03 ) :: flowdepth
ComputeChange: NS (ITER=1) (NRM,RELC): (  25.526483     0.10589607E-02 ) :: navier-stokes
ComputeChange: NS (ITER=2) (NRM,RELC): (  25.522850     0.43211931E-03 ) :: navier-stokes
ComputeChange: NS (ITER=3) (NRM,RELC): (  25.513943     0.72486961E-03 ) :: navier-stokes
ComputeChange: NS (ITER=4) (NRM,RELC): (  25.513942     0.57536025E-05 ) :: navier-stokes
ComputeChange: NS (ITER=1) (NRM,RELC): (  1895.0739     0.22418076E-03 ) :: free surface evolution
ComputeChange: NS (ITER=2) (NRM,RELC): (  1895.0739     0.11998143E-15 ) :: free surface evolution
MAIN: 
MAIN: -------------------------------------
MAIN:  Time: 43/250   86.000000000000000
MAIN: Estimated time left:  2.3 minutes
MAIN: -------------------------------------
MAIN: 
FlowdepthSolver: Gradient of  -0.1000E+01 applied
ComputeChange: NS (ITER=1) (NRM,RELC): (  173.38094     0.36219420E-03 ) :: flowdepth
ComputeChange: NS (ITER=1) (NRM,RELC): (  25.509938     0.10251747E-02 ) :: navier-stokes
ComputeChange: NS (ITER=2) (NRM,RELC): (  25.506550     0.43089012E-03 ) :: navier-stokes
ComputeChange: NS (ITER=3) (NRM,RELC): (  25.498158     0.72578828E-03 ) :: navier-stokes
ComputeChange: NS (ITER=4) (NRM,RELC): (  25.498157     0.53047792E-05 ) :: navier-stokes
ComputeChange: NS (ITER=1) (NRM,RELC): (  1894.6441     0.22684027E-03 ) :: free surface evolution
ComputeChange: NS (ITER=2) (NRM,RELC): (  1894.6441      0.0000000     ) :: free surface evolution
MAIN: 
MAIN: -------------------------------------
MAIN:  Time: 44/250   88.000000000000000
MAIN: Estimated time left:  2.1 minutes
MAIN: -------------------------------------
MAIN: 
FlowdepthSolver: Gradient of  -0.1000E+01 applied
ComputeChange: NS (ITER=1) (NRM,RELC): (  173.31971     0.35320259E-03 ) :: flowdepth
ComputeChange: NS (ITER=1) (NRM,RELC): (  25.494434     0.98285384E-03 ) :: navier-stokes
ComputeChange: NS (ITER=2) (NRM,RELC): (  25.483268     0.10685675E-02 ) :: navier-stokes
ComputeChange: NS (ITER=3) (NRM,RELC): (  25.483284     0.82911936E-05 ) :: navier-stokes
ComputeChange: NS (ITER=1) (NRM,RELC): (  1894.2114     0.22839131E-03 ) :: free surface evolution
ComputeChange: NS (ITER=2) (NRM,RELC): (  1894.2114      0.0000000     ) :: free surface evolution
MAIN: 
MAIN: -------------------------------------
MAIN:  Time: 45/250   90.000000000000000
MAIN: Estimated time left:  1.7 minutes
MAIN: -------------------------------------
MAIN: 
FlowdepthSolver: Gradient of  -0.1000E+01 applied
ComputeChange: NS (ITER=1) (NRM,RELC): (  173.26010     0.34399049E-03 ) :: flowdepth
ComputeChange: NS (ITER=1) (NRM,RELC): (  25.479793     0.93633460E-03 ) :: navier-stokes
ComputeChange: NS (ITER=2) (NRM,RELC): (  25.469158     0.10603586E-02 ) :: navier-stokes
ComputeChange: NS (ITER=3) (NRM,RELC): (  25.469172     0.73617655E-05 ) :: navier-stokes
ComputeChange: NS (ITER=1) (NRM,RELC): (  1893.7777     0.22899101E-03 ) :: free surface evolution
ComputeChange: NS (ITER=2) (NRM,RELC): (  1893.7777      0.0000000     ) :: free surface evolution
MAIN: 
MAIN: -------------------------------------
MAIN:  Time: 46/250   92.000000000000000
MAIN: Estimated time left:  2.1 minutes
MAIN: -------------------------------------
MAIN: 
FlowdepthSolver: Gradient of  -0.1000E+01 applied
ComputeChange: NS (ITER=1) (NRM,RELC): (  173.20211     0.33473440E-03 ) :: flowdepth
ComputeChange: NS (ITER=1) (NRM,RELC): (  25.465879     0.88927679E-03 ) :: navier-stokes
ComputeChange: NS (ITER=2) (NRM,RELC): (  25.455698     0.10466589E-02 ) :: navier-stokes
ComputeChange: NS (ITER=3) (NRM,RELC): (  25.455711     0.67915348E-05 ) :: navier-stokes
ComputeChange: NS (ITER=1) (NRM,RELC): (  1893.3445     0.22879860E-03 ) :: free surface evolution
ComputeChange: NS (ITER=2) (NRM,RELC): (  1893.3445     0.12009102E-15 ) :: free surface evolution
MAIN: 
MAIN: -------------------------------------
MAIN:  Time: 47/250   94.000000000000000
MAIN: Estimated time left:  1.8 minutes
MAIN: -------------------------------------
MAIN: 
FlowdepthSolver: Gradient of  -0.1000E+01 applied
ComputeChange: NS (ITER=1) (NRM,RELC): (  173.14574     0.32555361E-03 ) :: flowdepth
ComputeChange: NS (ITER=1) (NRM,RELC): (  25.452590     0.84447726E-03 ) :: navier-stokes
ComputeChange: NS (ITER=2) (NRM,RELC): (  25.442808     0.10288764E-02 ) :: navier-stokes
ComputeChange: NS (ITER=3) (NRM,RELC): (  25.442820     0.64404244E-05 ) :: navier-stokes
ComputeChange: NS (ITER=1) (NRM,RELC): (  1892.9129     0.22796136E-03 ) :: free surface evolution
ComputeChange: NS (ITER=2) (NRM,RELC): (  1892.9129      0.0000000     ) :: free surface evolution
MAIN: 
MAIN: -------------------------------------
MAIN:  Time: 48/250   96.000000000000000
MAIN: Estimated time left:  1.7 minutes
MAIN: -------------------------------------
MAIN: 
FlowdepthSolver: Gradient of  -0.1000E+01 applied
ComputeChange: NS (ITER=1) (NRM,RELC): (  173.09094     0.31652563E-03 ) :: flowdepth
ComputeChange: NS (ITER=1) (NRM,RELC): (  25.439853     0.80359162E-03 ) :: navier-stokes
ComputeChange: NS (ITER=2) (NRM,RELC): (  25.430427     0.10082401E-02 ) :: navier-stokes
ComputeChange: NS (ITER=3) (NRM,RELC): (  25.430438     0.61943473E-05 ) :: navier-stokes
ComputeChange: NS (ITER=1) (NRM,RELC): (  1892.4840     0.22660699E-03 ) :: free surface evolution
ComputeChange: NS (ITER=2) (NRM,RELC): (  1892.4840      0.0000000     ) :: free surface evolution
MAIN: 
MAIN: -------------------------------------
MAIN:  Time: 49/250   98.000000000000000
MAIN: Estimated time left:  1.6 minutes
MAIN: -------------------------------------
MAIN: 
FlowdepthSolver: Gradient of  -0.1000E+01 applied
ComputeChange: NS (ITER=1) (NRM,RELC): (  173.03769     0.30769794E-03 ) :: flowdepth
ComputeChange: NS (ITER=1) (NRM,RELC): (  25.427614     0.76723434E-03 ) :: navier-stokes
ComputeChange: NS (ITER=2) (NRM,RELC): (  25.418514     0.98572048E-03 ) :: navier-stokes
ComputeChange: NS (ITER=3) (NRM,RELC): (  25.418524     0.59922914E-05 ) :: navier-stokes
ComputeChange: NS (ITER=1) (NRM,RELC): (  1892.0585     0.22484372E-03 ) :: free surface evolution
ComputeChange: NS (ITER=2) (NRM,RELC): (  1892.0585     0.12017264E-15 ) :: free surface evolution
MAIN: 
MAIN: -------------------------------------
MAIN:  Time: 50/250   100.00000000000000
MAIN: Estimated time left:  1.6 minutes
MAIN: -------------------------------------
MAIN: 
FlowdepthSolver: Gradient of  -0.1000E+01 applied
ComputeChange: NS (ITER=1) (NRM,RELC): (  172.98594     0.29909743E-03 ) :: flowdepth
ComputeChange: NS (ITER=1) (NRM,RELC): (  25.415833     0.73531876E-03 ) :: navier-stokes
ComputeChange: NS (ITER=2) (NRM,RELC): (  25.407038     0.96210034E-03 ) :: navier-stokes
ComputeChange: NS (ITER=3) (NRM,RELC): (  25.407047     0.58108754E-05 ) :: navier-stokes
ComputeChange: NS (ITER=1) (NRM,RELC): (  1891.6371     0.22275343E-03 ) :: free surface evolution
ComputeChange: NS (ITER=2) (NRM,RELC): (  1891.6371     0.24039883E-15 ) :: free surface evolution
MAIN: 
MAIN: -------------------------------------
MAIN:  Time: 51/250   102.00000000000000
MAIN: Estimated time left:  1.8 minutes
MAIN: -------------------------------------
MAIN: 
FlowdepthSolver: Gradient of  -0.1000E+01 applied
ComputeChange: NS (ITER=1) (NRM,RELC): (  172.93566     0.29073874E-03 ) :: flowdepth
ComputeChange: NS (ITER=1) (NRM,RELC): (  25.404484     0.70743252E-03 ) :: navier-stokes
ComputeChange: NS (ITER=2) (NRM,RELC): (  25.395975     0.93801182E-03 ) :: navier-stokes
ComputeChange: NS (ITER=3) (NRM,RELC): (  25.395983     0.56444259E-05 ) :: navier-stokes
ComputeChange: NS (ITER=1) (NRM,RELC): (  1891.2202     0.22041964E-03 ) :: free surface evolution
ComputeChange: NS (ITER=2) (NRM,RELC): (  1891.2202      0.0000000     ) :: free surface evolution
MAIN: 
MAIN: -------------------------------------
MAIN:  Time: 52/250   104.00000000000000
MAIN: Estimated time left:  1.7 minutes
MAIN: -------------------------------------
MAIN: 
FlowdepthSolver: Gradient of  -0.1000E+01 applied
ComputeChange: NS (ITER=1) (NRM,RELC): (  172.88679     0.28262532E-03 ) :: flowdepth
ComputeChange: NS (ITER=1) (NRM,RELC): (  25.393543     0.68298672E-03 ) :: navier-stokes
ComputeChange: NS (ITER=2) (NRM,RELC): (  25.385309     0.91391809E-03 ) :: navier-stokes
ComputeChange: NS (ITER=3) (NRM,RELC): (  25.385316     0.54924086E-05 ) :: navier-stokes
ComputeChange: NS (ITER=1) (NRM,RELC): (  1890.8082     0.21789689E-03 ) :: free surface evolution
ComputeChange: NS (ITER=2) (NRM,RELC): (  1890.8082      0.0000000     ) :: free surface evolution
MAIN: 
MAIN: -------------------------------------
MAIN:  Time: 53/250   106.00000000000000
MAIN: Estimated time left:  1.8 minutes
MAIN: -------------------------------------
MAIN: 
FlowdepthSolver: Gradient of  -0.1000E+01 applied
ComputeChange: NS (ITER=1) (NRM,RELC): (  172.83929     0.27475873E-03 ) :: flowdepth
ComputeChange: NS (ITER=1) (NRM,RELC): (  25.382996     0.66147634E-03 ) :: navier-stokes
ComputeChange: NS (ITER=2) (NRM,RELC): (  25.375025     0.89015051E-03 ) :: navier-stokes
ComputeChange: NS (ITER=3) (NRM,RELC): (  25.375031     0.53558571E-05 ) :: navier-stokes
ComputeChange: NS (ITER=1) (NRM,RELC): (  1890.4013     0.21522972E-03 ) :: free surface evolution
ComputeChange: NS (ITER=2) (NRM,RELC): (  1890.4013      0.0000000     ) :: free surface evolution
MAIN: 
MAIN: -------------------------------------
MAIN:  Time: 54/250   108.00000000000000
MAIN: Estimated time left:  1.7 minutes
MAIN: -------------------------------------
MAIN: 
FlowdepthSolver: Gradient of  -0.1000E+01 applied
ComputeChange: NS (ITER=1) (NRM,RELC): (  172.79312     0.26713718E-03 ) :: flowdepth
ComputeChange: NS (ITER=1) (NRM,RELC): (  25.372828     0.64244158E-03 ) :: navier-stokes
ComputeChange: NS (ITER=2) (NRM,RELC): (  25.365111     0.86691678E-03 ) :: navier-stokes
ComputeChange: NS (ITER=3) (NRM,RELC): (  25.365117     0.52352201E-05 ) :: navier-stokes
ComputeChange: NS (ITER=1) (NRM,RELC): (  1889.9997     0.21245371E-03 ) :: free surface evolution
ComputeChange: NS (ITER=2) (NRM,RELC): (  1889.9997     0.12030355E-15 ) :: free surface evolution
MAIN: 
MAIN: -------------------------------------
MAIN:  Time: 55/250   110.00000000000000
MAIN: Estimated time left:  1.6 minutes
MAIN: -------------------------------------
MAIN: 
FlowdepthSolver: Gradient of  -0.1000E+01 applied
ComputeChange: NS (ITER=1) (NRM,RELC): (  172.74825     0.25975702E-03 ) :: flowdepth
ComputeChange: NS (ITER=1) (NRM,RELC): (  25.363028     0.62548620E-03 ) :: navier-stokes
ComputeChange: NS (ITER=2) (NRM,RELC): (  25.355557     0.84433925E-03 ) :: navier-stokes
ComputeChange: NS (ITER=3) (NRM,RELC): (  25.355562     0.51303984E-05 ) :: navier-stokes
ComputeChange: NS (ITER=1) (NRM,RELC): (  1889.6036     0.20959699E-03 ) :: free surface evolution
ComputeChange: NS (ITER=2) (NRM,RELC): (  1889.6036     0.24065754E-15 ) :: free surface evolution
MAIN: 
MAIN: -------------------------------------
MAIN:  Time: 56/250   112.00000000000000
MAIN: Estimated time left:  1.7 minutes
MAIN: -------------------------------------
MAIN: 
FlowdepthSolver: Gradient of  -0.1000E+01 applied
ComputeChange: NS (ITER=1) (NRM,RELC): (  172.70461     0.25261346E-03 ) :: flowdepth
ComputeChange: NS (ITER=1) (NRM,RELC): (  25.353585     0.61027817E-03 ) :: navier-stokes
ComputeChange: NS (ITER=2) (NRM,RELC): (  25.346353     0.82248587E-03 ) :: navier-stokes
ComputeChange: NS (ITER=3) (NRM,RELC): (  25.346358     0.50411660E-05 ) :: navier-stokes
ComputeChange: NS (ITER=1) (NRM,RELC): (  1889.2131     0.20668172E-03 ) :: free surface evolution
ComputeChange: NS (ITER=2) (NRM,RELC): (  1889.2131     0.12035364E-15 ) :: free surface evolution
MAIN: 
MAIN: -------------------------------------
MAIN:  Time: 57/250   114.00000000000000
MAIN: Estimated time left:  1.6 minutes
MAIN: -------------------------------------
MAIN: 
FlowdepthSolver: Gradient of  -0.1000E+01 applied
ComputeChange: NS (ITER=1) (NRM,RELC): (  172.66218     0.24570099E-03 ) :: flowdepth
ComputeChange: NS (ITER=1) (NRM,RELC): (  25.344489     0.59654426E-03 ) :: navier-stokes
ComputeChange: NS (ITER=2) (NRM,RELC): (  25.337489     0.80138954E-03 ) :: navier-stokes
ComputeChange: NS (ITER=3) (NRM,RELC): (  25.337493     0.49677079E-05 ) :: navier-stokes
ComputeChange: NS (ITER=1) (NRM,RELC): (  1888.8282     0.20372530E-03 ) :: free surface evolution
ComputeChange: NS (ITER=2) (NRM,RELC): (  1888.8282      0.0000000     ) :: free surface evolution
MAIN: 
MAIN: -------------------------------------
MAIN:  Time: 58/250   116.00000000000000
MAIN: Estimated time left:  1.7 minutes
MAIN: -------------------------------------
MAIN: 
FlowdepthSolver: Gradient of  -0.1000E+01 applied
ComputeChange: NS (ITER=1) (NRM,RELC): (  172.62092     0.23901371E-03 ) :: flowdepth
ComputeChange: NS (ITER=1) (NRM,RELC): (  25.335730     0.58406202E-03 ) :: navier-stokes
ComputeChange: NS (ITER=2) (NRM,RELC): (  25.328956     0.78105806E-03 ) :: navier-stokes
ComputeChange: NS (ITER=3) (NRM,RELC): (  25.328959     0.49114127E-05 ) :: navier-stokes
ComputeChange: NS (ITER=1) (NRM,RELC): (  1888.4491     0.20074137E-03 ) :: free surface evolution
ComputeChange: NS (ITER=2) (NRM,RELC): (  1888.4491      0.0000000     ) :: free surface evolution
MAIN: 
MAIN: -------------------------------------
MAIN:  Time: 59/250   118.00000000000000
MAIN: Estimated time left:  2.2 minutes
MAIN: -------------------------------------
MAIN: 
FlowdepthSolver: Gradient of  -0.1000E+01 applied
ComputeChange: NS (ITER=1) (NRM,RELC): (  172.58078     0.23254545E-03 ) :: flowdepth
ComputeChange: NS (ITER=1) (NRM,RELC): (  25.327300     0.57265075E-03 ) :: navier-stokes
ComputeChange: NS (ITER=2) (NRM,RELC): (  25.320745     0.76147738E-03 ) :: navier-stokes
ComputeChange: NS (ITER=3) (NRM,RELC): (  25.320748     0.48765045E-05 ) :: navier-stokes
ComputeChange: NS (ITER=1) (NRM,RELC): (  1888.0757     0.19774062E-03 ) :: free surface evolution
ComputeChange: NS (ITER=2) (NRM,RELC): (  1888.0757      0.0000000     ) :: free surface evolution
MAIN: 
MAIN: -------------------------------------
MAIN:  Time: 60/250   120.00000000000000
MAIN: Estimated time left:  1.6 minutes
MAIN: -------------------------------------
MAIN: 
FlowdepthSolver: Gradient of  -0.1000E+01 applied
ComputeChange: NS (ITER=1) (NRM,RELC): (  172.54173     0.22628992E-03 ) :: flowdepth
ComputeChange: NS (ITER=1) (NRM,RELC): (  25.319189     0.56216247E-03 ) :: navier-stokes
ComputeChange: NS (ITER=2) (NRM,RELC): (  25.312846     0.74261005E-03 ) :: navier-stokes
ComputeChange: NS (ITER=3) (NRM,RELC): (  25.312849     0.48736041E-05 ) :: navier-stokes
ComputeChange: NS (ITER=1) (NRM,RELC): (  1887.7081     0.19473139E-03 ) :: free surface evolution
ComputeChange: NS (ITER=2) (NRM,RELC): (  1887.7081     0.12044960E-15 ) :: free surface evolution
MAIN: 
MAIN: -------------------------------------
MAIN:  Time: 61/250   122.00000000000000
MAIN: Estimated time left:  1.5 minutes
MAIN: -------------------------------------
MAIN: 
FlowdepthSolver: Gradient of  -0.1000E+01 applied
ComputeChange: NS (ITER=1) (NRM,RELC): (  172.50374     0.22024084E-03 ) :: flowdepth
ComputeChange: NS (ITER=1) (NRM,RELC): (  25.311388     0.55247523E-03 ) :: navier-stokes
ComputeChange: NS (ITER=2) (NRM,RELC): (  25.305251     0.72439532E-03 ) :: navier-stokes
ComputeChange: NS (ITER=3) (NRM,RELC): (  25.305253     0.49182540E-05 ) :: navier-stokes
ComputeChange: NS (ITER=1) (NRM,RELC): (  1887.3462     0.19172036E-03 ) :: free surface evolution
ComputeChange: NS (ITER=2) (NRM,RELC): (  1887.3462      0.0000000     ) :: free surface evolution
MAIN: 
MAIN: -------------------------------------
MAIN:  Time: 62/250   124.00000000000000
MAIN: Estimated time left:  1.6 minutes
MAIN: -------------------------------------
MAIN: 
FlowdepthSolver: Gradient of  -0.1000E+01 applied
ComputeChange: NS (ITER=1) (NRM,RELC): (  172.46676     0.21439196E-03 ) :: flowdepth
ComputeChange: NS (ITER=1) (NRM,RELC): (  25.303888     0.54349097E-03 ) :: navier-stokes
ComputeChange: NS (ITER=2) (NRM,RELC): (  25.297951     0.70678419E-03 ) :: navier-stokes
ComputeChange: NS (ITER=3) (NRM,RELC): (  25.297952     0.50332273E-05 ) :: navier-stokes
ComputeChange: NS (ITER=1) (NRM,RELC): (  1886.9901     0.18871383E-03 ) :: free surface evolution
ComputeChange: NS (ITER=2) (NRM,RELC): (  1886.9901      0.0000000     ) :: free surface evolution
MAIN: 
MAIN: -------------------------------------
MAIN:  Time: 63/250   126.00000000000000
MAIN: Estimated time left:  1.6 minutes
MAIN: -------------------------------------
MAIN: 
FlowdepthSolver: Gradient of  -0.1000E+01 applied
ComputeChange: NS (ITER=1) (NRM,RELC): (  172.43076     0.20875823E-03 ) :: flowdepth
ComputeChange: NS (ITER=1) (NRM,RELC): (  25.296681     0.53542695E-03 ) :: navier-stokes
ComputeChange: NS (ITER=2) (NRM,RELC): (  25.290941     0.68988232E-03 ) :: navier-stokes
ComputeChange: NS (ITER=3) (NRM,RELC): (  25.290942     0.48719310E-05 ) :: navier-stokes
ComputeChange: NS (ITER=1) (NRM,RELC): (  1886.6397     0.18571122E-03 ) :: free surface evolution
ComputeChange: NS (ITER=2) (NRM,RELC): (  1886.6397      0.0000000     ) :: free surface evolution
MAIN: 
MAIN: -------------------------------------
MAIN:  Time: 64/250   128.00000000000000
MAIN: Estimated time left:  1.5 minutes
MAIN: -------------------------------------
MAIN: 
FlowdepthSolver: Gradient of  -0.1000E+01 applied
ComputeChange: NS (ITER=1) (NRM,RELC): (  172.39571     0.20329365E-03 ) :: flowdepth
ComputeChange: NS (ITER=1) (NRM,RELC): (  25.289761     0.52778812E-03 ) :: navier-stokes
ComputeChange: NS (ITER=2) (NRM,RELC): (  25.284210     0.67365629E-03 ) :: navier-stokes
ComputeChange: NS (ITER=3) (NRM,RELC): (  25.284211     0.48138440E-05 ) :: navier-stokes
ComputeChange: NS (ITER=1) (NRM,RELC): (  1886.2950     0.18272029E-03 ) :: free surface evolution
ComputeChange: NS (ITER=2) (NRM,RELC): (  1886.2950      0.0000000     ) :: free surface evolution
MAIN: 
MAIN: -------------------------------------
MAIN:  Time: 65/250   130.00000000000000
MAIN: Estimated time left:  1.5 minutes
MAIN: -------------------------------------
MAIN: 
FlowdepthSolver: Gradient of  -0.1000E+01 applied
ComputeChange: NS (ITER=1) (NRM,RELC): (  172.36158     0.19800554E-03 ) :: flowdepth
ComputeChange: NS (ITER=1) (NRM,RELC): (  25.283117     0.52052108E-03 ) :: navier-stokes
ComputeChange: NS (ITER=2) (NRM,RELC): (  25.277747     0.65812209E-03 ) :: navier-stokes
ComputeChange: NS (ITER=3) (NRM,RELC): (  25.277748     0.49135891E-05 ) :: navier-stokes
ComputeChange: NS (ITER=1) (NRM,RELC): (  1885.9560     0.17974096E-03 ) :: free surface evolution
ComputeChange: NS (ITER=2) (NRM,RELC): (  1885.9560      0.0000000     ) :: free surface evolution
MAIN: 
MAIN: -------------------------------------
MAIN:  Time: 66/250   132.00000000000000
MAIN: Estimated time left:  1.6 minutes
MAIN: -------------------------------------
MAIN: 
FlowdepthSolver: Gradient of  -0.1000E+01 applied
ComputeChange: NS (ITER=1) (NRM,RELC): (  172.32833     0.19289211E-03 ) :: flowdepth
ComputeChange: NS (ITER=1) (NRM,RELC): (  25.276739     0.51360328E-03 ) :: navier-stokes
ComputeChange: NS (ITER=2) (NRM,RELC): (  25.271545     0.64301702E-03 ) :: navier-stokes
ComputeChange: NS (ITER=3) (NRM,RELC): (  25.271546     0.50675998E-05 ) :: navier-stokes
ComputeChange: NS (ITER=1) (NRM,RELC): (  1885.6226     0.17678106E-03 ) :: free surface evolution
ComputeChange: NS (ITER=2) (NRM,RELC): (  1885.6226      0.0000000     ) :: free surface evolution
MAIN: 
MAIN: -------------------------------------
MAIN:  Time: 67/250   134.00000000000000
MAIN: Estimated time left:  1.6 minutes
MAIN: -------------------------------------
MAIN: 
FlowdepthSolver: Gradient of  -0.1000E+01 applied
ComputeChange: NS (ITER=1) (NRM,RELC): (  172.29595     0.18794885E-03 ) :: flowdepth
ComputeChange: NS (ITER=1) (NRM,RELC): (  25.270618     0.50697979E-03 ) :: navier-stokes
ComputeChange: NS (ITER=2) (NRM,RELC): (  25.265594     0.62817762E-03 ) :: navier-stokes
ComputeChange: NS (ITER=3) (NRM,RELC): (  25.265595     0.52104336E-05 ) :: navier-stokes
ComputeChange: NS (ITER=1) (NRM,RELC): (  1885.2950     0.17375648E-03 ) :: free surface evolution
ComputeChange: NS (ITER=2) (NRM,RELC): (  1885.2950      0.0000000     ) :: free surface evolution
MAIN: 
MAIN: -------------------------------------
MAIN:  Time: 68/250   136.00000000000000
MAIN: Estimated time left:  1.6 minutes
MAIN: -------------------------------------
MAIN: 
FlowdepthSolver: Gradient of  -0.1000E+01 applied
ComputeChange: NS (ITER=1) (NRM,RELC): (  172.26438     0.18321699E-03 ) :: flowdepth
ComputeChange: NS (ITER=1) (NRM,RELC): (  25.264750     0.50128239E-03 ) :: navier-stokes
ComputeChange: NS (ITER=2) (NRM,RELC): (  25.259896     0.61366881E-03 ) :: navier-stokes
ComputeChange: NS (ITER=3) (NRM,RELC): (  25.259896     0.56978199E-05 ) :: navier-stokes
ComputeChange: NS (ITER=1) (NRM,RELC): (  1884.9730     0.17079033E-03 ) :: free surface evolution
ComputeChange: NS (ITER=2) (NRM,RELC): (  1884.9730     0.12062437E-15 ) :: free surface evolution
MAIN: 
MAIN: -------------------------------------
MAIN:  Time: 69/250   138.00000000000000
MAIN: Estimated time left:  1.5 minutes
MAIN: -------------------------------------
MAIN: 
FlowdepthSolver: Gradient of  -0.1000E+01 applied
ComputeChange: NS (ITER=1) (NRM,RELC): (  172.23362     0.17860509E-03 ) :: flowdepth
ComputeChange: NS (ITER=1) (NRM,RELC): (  25.259128     0.49492438E-03 ) :: navier-stokes
ComputeChange: NS (ITER=2) (NRM,RELC): (  25.254433     0.59892967E-03 ) :: navier-stokes
ComputeChange: NS (ITER=3) (NRM,RELC): (  25.254432     0.59058726E-05 ) :: navier-stokes
ComputeChange: NS (ITER=1) (NRM,RELC): (  1884.6518     0.17041970E-03 ) :: free surface evolution
ComputeChange: NS (ITER=2) (NRM,RELC): (  1884.6518     0.12064493E-15 ) :: free surface evolution
MAIN: 
MAIN: -------------------------------------
MAIN:  Time: 70/250   140.00000000000000
MAIN: Estimated time left:  1.5 minutes
MAIN: -------------------------------------
MAIN: 
FlowdepthSolver: Gradient of  -0.1000E+01 applied
ComputeChange: NS (ITER=1) (NRM,RELC): (  172.20351     0.17481157E-03 ) :: flowdepth
ComputeChange: NS (ITER=1) (NRM,RELC): (  25.253788     0.49935901E-03 ) :: navier-stokes
ComputeChange: NS (ITER=2) (NRM,RELC): (  25.249334     0.58484382E-03 ) :: navier-stokes
ComputeChange: NS (ITER=3) (NRM,RELC): (  25.249332     0.78215224E-05 ) :: navier-stokes
ComputeChange: NS (ITER=1) (NRM,RELC): (  1884.3346     0.16832089E-03 ) :: free surface evolution
ComputeChange: NS (ITER=2) (NRM,RELC): (  1884.3346      0.0000000     ) :: free surface evolution
MAIN: 
MAIN: -------------------------------------
MAIN:  Time: 71/250   142.00000000000000
MAIN: Estimated time left:  1.9 minutes
MAIN: -------------------------------------
MAIN: 
FlowdepthSolver: Gradient of  -0.1000E+01 applied
ComputeChange: NS (ITER=1) (NRM,RELC): (  172.17413     0.17060659E-03 ) :: flowdepth
ComputeChange: NS (ITER=1) (NRM,RELC): (  25.248765     0.49261021E-03 ) :: navier-stokes
ComputeChange: NS (ITER=2) (NRM,RELC): (  25.244464     0.56849817E-03 ) :: navier-stokes
ComputeChange: NS (ITER=3) (NRM,RELC): (  25.244460     0.11115868E-04 ) :: navier-stokes
ComputeChange: NS (ITER=4) (NRM,RELC): (  25.244462     0.28442000E-05 ) :: navier-stokes
ComputeChange: NS (ITER=1) (NRM,RELC): (  1884.0225     0.16565558E-03 ) :: free surface evolution
ComputeChange: NS (ITER=2) (NRM,RELC): (  1884.0225      0.0000000     ) :: free surface evolution
MAIN: 
MAIN: -------------------------------------
MAIN:  Time: 72/250   144.00000000000000
MAIN: Estimated time left:  2.1 minutes
MAIN: -------------------------------------
MAIN: 
FlowdepthSolver: Gradient of  -0.1000E+01 applied
ComputeChange: NS (ITER=1) (NRM,RELC): (  172.14549     0.16638815E-03 ) :: flowdepth
ComputeChange: NS (ITER=1) (NRM,RELC): (  25.243955     0.48223394E-03 ) :: navier-stokes
ComputeChange: NS (ITER=2) (NRM,RELC): (  25.239777     0.55221537E-03 ) :: navier-stokes
ComputeChange: NS (ITER=3) (NRM,RELC): (  25.239774     0.98503592E-05 ) :: navier-stokes
ComputeChange: NS (ITER=1) (NRM,RELC): (  1883.7135     0.16398682E-03 ) :: free surface evolution
ComputeChange: NS (ITER=2) (NRM,RELC): (  1883.7135      0.0000000     ) :: free surface evolution
MAIN: 
MAIN: -------------------------------------
MAIN:  Time: 73/250   146.00000000000000
MAIN: Estimated time left:  1.5 minutes
MAIN: -------------------------------------
MAIN: 
FlowdepthSolver: Gradient of  -0.1000E+01 applied
ComputeChange: NS (ITER=1) (NRM,RELC): (  172.11751     0.16255945E-03 ) :: flowdepth
ComputeChange: NS (ITER=1) (NRM,RELC): (  25.239345     0.47658514E-03 ) :: navier-stokes
ComputeChange: NS (ITER=2) (NRM,RELC): (  25.235320     0.53643289E-03 ) :: navier-stokes
ComputeChange: NS (ITER=3) (NRM,RELC): (  25.235314     0.14770111E-04 ) :: navier-stokes
ComputeChange: NS (ITER=4) (NRM,RELC): (  25.235316     0.54876878E-05 ) :: navier-stokes
ComputeChange: NS (ITER=1) (NRM,RELC): (  1883.4094     0.16145678E-03 ) :: free surface evolution
ComputeChange: NS (ITER=2) (NRM,RELC): (  1883.4094     0.12072451E-15 ) :: free surface evolution
MAIN: 
MAIN: -------------------------------------
MAIN:  Time: 74/250   148.00000000000000
MAIN: Estimated time left:  1.8 minutes
MAIN: -------------------------------------
MAIN: 
FlowdepthSolver: Gradient of  -0.1000E+01 applied
ComputeChange: NS (ITER=1) (NRM,RELC): (  172.09021     0.15861740E-03 ) :: flowdepth
ComputeChange: NS (ITER=1) (NRM,RELC): (  25.234944     0.46783139E-03 ) :: navier-stokes
ComputeChange: NS (ITER=2) (NRM,RELC): (  25.231044     0.52842153E-03 ) :: navier-stokes
ComputeChange: NS (ITER=3) (NRM,RELC): (  25.231052     0.18858641E-04 ) :: navier-stokes
ComputeChange: NS (ITER=4) (NRM,RELC): (  25.231052     0.41386176E-06 ) :: navier-stokes
ComputeChange: NS (ITER=1) (NRM,RELC): (  1883.1106     0.15868220E-03 ) :: free surface evolution
ComputeChange: NS (ITER=2) (NRM,RELC): (  1883.1106      0.0000000     ) :: free surface evolution
MAIN: 
MAIN: -------------------------------------
MAIN:  Time: 75/250   150.00000000000000
MAIN: Estimated time left:  1.9 minutes
MAIN: -------------------------------------
MAIN: 
[...]
ComputeChange: NS (ITER=1) (NRM,RELC): (  1900.1400     0.27420923E-03 ) :: free surface evolution
ComputeChange: NS (ITER=2) (NRM,RELC): (  1900.1400      0.0000000     ) :: free surface evolution
MAIN: 
MAIN: -------------------------------------
MAIN:  Time: 226/250   452.00000000000000
MAIN: Estimated time left: 26.9 seconds
MAIN: -------------------------------------
MAIN: 
FlowdepthSolver: Gradient of  -0.1000E+01 applied
ComputeChange: NS (ITER=1) (NRM,RELC): (  171.03749     0.21612956E-05 ) :: flowdepth
ComputeChange: NS (ITER=1) (NRM,RELC): (  25.085223     0.36077687E-03 ) :: navier-stokes
ComputeChange: NS (ITER=2) (NRM,RELC): (  25.084240     0.36020828E-03 ) :: navier-stokes
ComputeChange: NS (ITER=3) (NRM,RELC): (  25.084237     0.36219595E-05 ) :: navier-stokes
ComputeChange: NS (ITER=1) (NRM,RELC): (  1900.6661     0.27682122E-03 ) :: free surface evolution
ComputeChange: NS (ITER=2) (NRM,RELC): (  1900.6661      0.0000000     ) :: free surface evolution
MAIN: 
MAIN: -------------------------------------
MAIN:  Time: 227/250   454.00000000000000
MAIN: Estimated time left: 13.4 seconds
MAIN: -------------------------------------
MAIN: 
FlowdepthSolver: Gradient of  -0.1000E+01 applied
ComputeChange: NS (ITER=1) (NRM,RELC): (  171.03713     0.21014807E-05 ) :: flowdepth
ComputeChange: NS (ITER=1) (NRM,RELC): (  25.085149     0.36076580E-03 ) :: navier-stokes
ComputeChange: NS (ITER=2) (NRM,RELC): (  25.084167     0.36020845E-03 ) :: navier-stokes
ComputeChange: NS (ITER=3) (NRM,RELC): (  25.084164     0.36219099E-05 ) :: navier-stokes
ComputeChange: NS (ITER=1) (NRM,RELC): (  1901.1972     0.27942745E-03 ) :: free surface evolution
ComputeChange: NS (ITER=2) (NRM,RELC): (  1901.1972     0.11959500E-15 ) :: free surface evolution
MAIN: 
MAIN: -------------------------------------
MAIN:  Time: 228/250   456.00000000000000
MAIN: Estimated time left: 13.6 seconds
MAIN: -------------------------------------
MAIN: 
FlowdepthSolver: Gradient of  -0.1000E+01 applied
ComputeChange: NS (ITER=1) (NRM,RELC): (  171.03678     0.20434507E-05 ) :: flowdepth
ComputeChange: NS (ITER=1) (NRM,RELC): (  25.085076     0.36075501E-03 ) :: navier-stokes
ComputeChange: NS (ITER=2) (NRM,RELC): (  25.084096     0.36020863E-03 ) :: navier-stokes
ComputeChange: NS (ITER=3) (NRM,RELC): (  25.084093     0.36218611E-05 ) :: navier-stokes
ComputeChange: NS (ITER=1) (NRM,RELC): (  1901.7335     0.28202792E-03 ) :: free surface evolution
ComputeChange: NS (ITER=2) (NRM,RELC): (  1901.7335      0.0000000     ) :: free surface evolution
MAIN: 
MAIN: -------------------------------------
MAIN:  Time: 229/250   458.00000000000000
MAIN: Estimated time left: 11.4 seconds
MAIN: -------------------------------------
MAIN: 
FlowdepthSolver: Gradient of  -0.1000E+01 applied
ComputeChange: NS (ITER=1) (NRM,RELC): (  171.03644     0.19871523E-05 ) :: flowdepth
ComputeChange: NS (ITER=1) (NRM,RELC): (  25.085006     0.36074451E-03 ) :: navier-stokes
ComputeChange: NS (ITER=2) (NRM,RELC): (  25.084028     0.36020882E-03 ) :: navier-stokes
ComputeChange: NS (ITER=3) (NRM,RELC): (  25.084024     0.36218132E-05 ) :: navier-stokes
ComputeChange: NS (ITER=1) (NRM,RELC): (  1902.2749     0.28462260E-03 ) :: free surface evolution
ComputeChange: NS (ITER=2) (NRM,RELC): (  1902.2749      0.0000000     ) :: free surface evolution
MAIN: 
MAIN: -------------------------------------
MAIN:  Time: 230/250   460.00000000000000
MAIN: Estimated time left: 10.2 seconds
MAIN: -------------------------------------
MAIN: 
FlowdepthSolver: Gradient of  -0.1000E+01 applied
ComputeChange: NS (ITER=1) (NRM,RELC): (  171.03611     0.19325334E-05 ) :: flowdepth
ComputeChange: NS (ITER=1) (NRM,RELC): (  25.084938     0.36073427E-03 ) :: navier-stokes
ComputeChange: NS (ITER=2) (NRM,RELC): (  25.083961     0.36020901E-03 ) :: navier-stokes
ComputeChange: NS (ITER=3) (NRM,RELC): (  25.083958     0.36217660E-05 ) :: navier-stokes
ComputeChange: NS (ITER=1) (NRM,RELC): (  1902.8213     0.28721146E-03 ) :: free surface evolution
ComputeChange: NS (ITER=2) (NRM,RELC): (  1902.8213      0.0000000     ) :: free surface evolution
MAIN: 
MAIN: -------------------------------------
MAIN:  Time: 231/250   462.00000000000000
MAIN: Estimated time left:  9.2 seconds
MAIN: -------------------------------------
MAIN: 
FlowdepthSolver: Gradient of  -0.1000E+01 applied
ComputeChange: NS (ITER=1) (NRM,RELC): (  171.03578     0.18795439E-05 ) :: flowdepth
ComputeChange: NS (ITER=1) (NRM,RELC): (  25.084872     0.36072428E-03 ) :: navier-stokes
ComputeChange: NS (ITER=2) (NRM,RELC): (  25.083897     0.36020920E-03 ) :: navier-stokes
ComputeChange: NS (ITER=3) (NRM,RELC): (  25.083893     0.36217196E-05 ) :: navier-stokes
ComputeChange: NS (ITER=1) (NRM,RELC): (  1903.3728     0.28979449E-03 ) :: free surface evolution
ComputeChange: NS (ITER=2) (NRM,RELC): (  1903.3728      0.0000000     ) :: free surface evolution
MAIN: 
MAIN: -------------------------------------
MAIN:  Time: 232/250   464.00000000000000
MAIN: Estimated time left:  9.7 seconds
MAIN: -------------------------------------
MAIN: 
FlowdepthSolver: Gradient of  -0.1000E+01 applied
ComputeChange: NS (ITER=1) (NRM,RELC): (  171.03547     0.18281349E-05 ) :: flowdepth
ComputeChange: NS (ITER=1) (NRM,RELC): (  25.084808     0.36071455E-03 ) :: navier-stokes
ComputeChange: NS (ITER=2) (NRM,RELC): (  25.083834     0.36020939E-03 ) :: navier-stokes
ComputeChange: NS (ITER=3) (NRM,RELC): (  25.083831     0.36216738E-05 ) :: navier-stokes
ComputeChange: NS (ITER=1) (NRM,RELC): (  1903.9294     0.29237167E-03 ) :: free surface evolution
ComputeChange: NS (ITER=2) (NRM,RELC): (  1903.9294      0.0000000     ) :: free surface evolution
MAIN: 
MAIN: -------------------------------------
MAIN:  Time: 233/250   466.00000000000000
MAIN: Estimated time left:  8.6 seconds
MAIN: -------------------------------------
MAIN: 
FlowdepthSolver: Gradient of  -0.1000E+01 applied
ComputeChange: NS (ITER=1) (NRM,RELC): (  171.03517     0.17782590E-05 ) :: flowdepth
ComputeChange: NS (ITER=1) (NRM,RELC): (  25.084747     0.36070506E-03 ) :: navier-stokes
ComputeChange: NS (ITER=2) (NRM,RELC): (  25.083774     0.36020956E-03 ) :: navier-stokes
ComputeChange: NS (ITER=3) (NRM,RELC): (  25.083770     0.36216288E-05 ) :: navier-stokes
ComputeChange: NS (ITER=1) (NRM,RELC): (  1904.4910     0.29494297E-03 ) :: free surface evolution
ComputeChange: NS (ITER=2) (NRM,RELC): (  1904.4910      0.0000000     ) :: free surface evolution
MAIN: 
MAIN: -------------------------------------
MAIN:  Time: 234/250   468.00000000000000
MAIN: Estimated time left:  8.5 seconds
MAIN: -------------------------------------
MAIN: 
FlowdepthSolver: Gradient of  -0.1000E+01 applied
ComputeChange: NS (ITER=1) (NRM,RELC): (  171.03487     0.17298704E-05 ) :: flowdepth
ComputeChange: NS (ITER=1) (NRM,RELC): (  25.084687     0.36069580E-03 ) :: navier-stokes
ComputeChange: NS (ITER=2) (NRM,RELC): (  25.083715     0.36020972E-03 ) :: navier-stokes
ComputeChange: NS (ITER=3) (NRM,RELC): (  25.083712     0.36215845E-05 ) :: navier-stokes
ComputeChange: NS (ITER=1) (NRM,RELC): (  1905.0577     0.29750838E-03 ) :: free surface evolution
ComputeChange: NS (ITER=2) (NRM,RELC): (  1905.0577      0.0000000     ) :: free surface evolution
MAIN: 
MAIN: -------------------------------------
MAIN:  Time: 235/250   470.00000000000000
MAIN: Estimated time left:  7.2 seconds
MAIN: -------------------------------------
MAIN: 
FlowdepthSolver: Gradient of  -0.1000E+01 applied
ComputeChange: NS (ITER=1) (NRM,RELC): (  171.03458     0.16829244E-05 ) :: flowdepth
ComputeChange: NS (ITER=1) (NRM,RELC): (  25.084629     0.36068676E-03 ) :: navier-stokes
ComputeChange: NS (ITER=2) (NRM,RELC): (  25.083658     0.36020986E-03 ) :: navier-stokes
ComputeChange: NS (ITER=3) (NRM,RELC): (  25.083655     0.36215408E-05 ) :: navier-stokes
ComputeChange: NS (ITER=1) (NRM,RELC): (  1905.6294     0.30006787E-03 ) :: free surface evolution
ComputeChange: NS (ITER=2) (NRM,RELC): (  1905.6294      0.0000000     ) :: free surface evolution
MAIN: 
MAIN: -------------------------------------
MAIN:  Time: 236/250   472.00000000000000
MAIN: Estimated time left:  6.9 seconds
MAIN: -------------------------------------
MAIN: 
FlowdepthSolver: Gradient of  -0.1000E+01 applied
ComputeChange: NS (ITER=1) (NRM,RELC): (  171.03430     0.16373780E-05 ) :: flowdepth
ComputeChange: NS (ITER=1) (NRM,RELC): (  25.084572     0.36067794E-03 ) :: navier-stokes
ComputeChange: NS (ITER=2) (NRM,RELC): (  25.083603     0.36020999E-03 ) :: navier-stokes
ComputeChange: NS (ITER=3) (NRM,RELC): (  25.083600     0.36214978E-05 ) :: navier-stokes
ComputeChange: NS (ITER=1) (NRM,RELC): (  1906.2062     0.30262142E-03 ) :: free surface evolution
ComputeChange: NS (ITER=2) (NRM,RELC): (  1906.2062      0.0000000     ) :: free surface evolution
MAIN: 
MAIN: -------------------------------------
MAIN:  Time: 237/250   474.00000000000000
MAIN: Estimated time left:  6.8 seconds
MAIN: -------------------------------------
MAIN: 
FlowdepthSolver: Gradient of  -0.1000E+01 applied
ComputeChange: NS (ITER=1) (NRM,RELC): (  171.03403     0.15931891E-05 ) :: flowdepth
ComputeChange: NS (ITER=1) (NRM,RELC): (  25.084518     0.36066933E-03 ) :: navier-stokes
ComputeChange: NS (ITER=2) (NRM,RELC): (  25.083550     0.36021009E-03 ) :: navier-stokes
ComputeChange: NS (ITER=3) (NRM,RELC): (  25.083547     0.36214554E-05 ) :: navier-stokes
ComputeChange: NS (ITER=1) (NRM,RELC): (  1906.7880     0.30516901E-03 ) :: free surface evolution
ComputeChange: NS (ITER=2) (NRM,RELC): (  1906.7880      0.0000000     ) :: free surface evolution
MAIN: 
MAIN: -------------------------------------
MAIN:  Time: 238/250   476.00000000000000
MAIN: Estimated time left:  6.5 seconds
MAIN: -------------------------------------
MAIN: 
FlowdepthSolver: Gradient of  -0.1000E+01 applied
ComputeChange: NS (ITER=1) (NRM,RELC): (  171.03377     0.15503172E-05 ) :: flowdepth
ComputeChange: NS (ITER=1) (NRM,RELC): (  25.084465     0.36066092E-03 ) :: navier-stokes
ComputeChange: NS (ITER=2) (NRM,RELC): (  25.083499     0.36021017E-03 ) :: navier-stokes
ComputeChange: NS (ITER=3) (NRM,RELC): (  25.083495     0.36214136E-05 ) :: navier-stokes
ComputeChange: NS (ITER=1) (NRM,RELC): (  1907.3748     0.30771063E-03 ) :: free surface evolution
ComputeChange: NS (ITER=2) (NRM,RELC): (  1907.3748     0.23841530E-15 ) :: free surface evolution
MAIN: 
MAIN: -------------------------------------
MAIN:  Time: 239/250   478.00000000000000
MAIN: Estimated time left:  5.5 seconds
MAIN: -------------------------------------
MAIN: 
FlowdepthSolver: Gradient of  -0.1000E+01 applied
ComputeChange: NS (ITER=1) (NRM,RELC): (  171.03351     0.15087227E-05 ) :: flowdepth
ComputeChange: NS (ITER=1) (NRM,RELC): (  25.084414     0.36065271E-03 ) :: navier-stokes
ComputeChange: NS (ITER=2) (NRM,RELC): (  25.083449     0.36021022E-03 ) :: navier-stokes
ComputeChange: NS (ITER=3) (NRM,RELC): (  25.083445     0.36213724E-05 ) :: navier-stokes
ComputeChange: NS (ITER=1) (NRM,RELC): (  1907.9667     0.31024624E-03 ) :: free surface evolution
ComputeChange: NS (ITER=2) (NRM,RELC): (  1907.9667      0.0000000     ) :: free surface evolution
MAIN: 
MAIN: -------------------------------------
MAIN:  Time: 240/250   480.00000000000000
MAIN: Estimated time left:  5.1 seconds
MAIN: -------------------------------------
MAIN: 
FlowdepthSolver: Gradient of  -0.1000E+01 applied
ComputeChange: NS (ITER=1) (NRM,RELC): (  171.03326     0.14683675E-05 ) :: flowdepth
ComputeChange: NS (ITER=1) (NRM,RELC): (  25.084365     0.36064468E-03 ) :: navier-stokes
ComputeChange: NS (ITER=2) (NRM,RELC): (  25.083400     0.36021024E-03 ) :: navier-stokes
ComputeChange: NS (ITER=3) (NRM,RELC): (  25.083397     0.36213318E-05 ) :: navier-stokes
ComputeChange: NS (ITER=1) (NRM,RELC): (  1908.5635     0.31277583E-03 ) :: free surface evolution
ComputeChange: NS (ITER=2) (NRM,RELC): (  1908.5635      0.0000000     ) :: free surface evolution
MAIN: 
MAIN: -------------------------------------
MAIN:  Time: 241/250   482.00000000000000
MAIN: Estimated time left:  4.5 seconds
MAIN: -------------------------------------
MAIN: 
FlowdepthSolver: Gradient of  -0.1000E+01 applied
ComputeChange: NS (ITER=1) (NRM,RELC): (  171.03301     0.14292144E-05 ) :: flowdepth
ComputeChange: NS (ITER=1) (NRM,RELC): (  25.084317     0.36063684E-03 ) :: navier-stokes
ComputeChange: NS (ITER=2) (NRM,RELC): (  25.083353     0.36021024E-03 ) :: navier-stokes
ComputeChange: NS (ITER=3) (NRM,RELC): (  25.083350     0.36212917E-05 ) :: navier-stokes
ComputeChange: NS (ITER=1) (NRM,RELC): (  1909.1654     0.31529939E-03 ) :: free surface evolution
ComputeChange: NS (ITER=2) (NRM,RELC): (  1909.1654     0.11909585E-15 ) :: free surface evolution
MAIN: 
MAIN: -------------------------------------
MAIN:  Time: 242/250   484.00000000000000
MAIN: Estimated time left:  4.3 seconds
MAIN: -------------------------------------
MAIN: 
FlowdepthSolver: Gradient of  -0.1000E+01 applied
ComputeChange: NS (ITER=1) (NRM,RELC): (  171.03277     0.13912274E-05 ) :: flowdepth
ComputeChange: NS (ITER=1) (NRM,RELC): (  25.084271     0.36062917E-03 ) :: navier-stokes
ComputeChange: NS (ITER=2) (NRM,RELC): (  25.083308     0.36021020E-03 ) :: navier-stokes
ComputeChange: NS (ITER=3) (NRM,RELC): (  25.083305     0.36212521E-05 ) :: navier-stokes
ComputeChange: NS (ITER=1) (NRM,RELC): (  1909.7723     0.31781688E-03 ) :: free surface evolution
ComputeChange: NS (ITER=2) (NRM,RELC): (  1909.7723      0.0000000     ) :: free surface evolution
MAIN: 
MAIN: -------------------------------------
MAIN:  Time: 243/250   486.00000000000000
MAIN: Estimated time left:  3.9 seconds
MAIN: -------------------------------------
MAIN: 
FlowdepthSolver: Gradient of  -0.1000E+01 applied
ComputeChange: NS (ITER=1) (NRM,RELC): (  171.03254     0.13543716E-05 ) :: flowdepth
ComputeChange: NS (ITER=1) (NRM,RELC): (  25.084226     0.36062168E-03 ) :: navier-stokes
ComputeChange: NS (ITER=2) (NRM,RELC): (  25.083264     0.36021014E-03 ) :: navier-stokes
ComputeChange: NS (ITER=3) (NRM,RELC): (  25.083261     0.36212131E-05 ) :: navier-stokes
ComputeChange: NS (ITER=1) (NRM,RELC): (  1910.3841     0.32032829E-03 ) :: free surface evolution
ComputeChange: NS (ITER=2) (NRM,RELC): (  1910.3841     0.11901987E-15 ) :: free surface evolution
MAIN: 
MAIN: -------------------------------------
MAIN:  Time: 244/250   488.00000000000000
MAIN: Estimated time left:  4.3 seconds
MAIN: -------------------------------------
MAIN: 
FlowdepthSolver: Gradient of  -0.1000E+01 applied
ComputeChange: NS (ITER=1) (NRM,RELC): (  171.03232     0.13186131E-05 ) :: flowdepth
ComputeChange: NS (ITER=1) (NRM,RELC): (  25.084182     0.36061434E-03 ) :: navier-stokes
ComputeChange: NS (ITER=2) (NRM,RELC): (  25.083222     0.36021004E-03 ) :: navier-stokes
ComputeChange: NS (ITER=3) (NRM,RELC): (  25.083218     0.36211746E-05 ) :: navier-stokes
ComputeChange: NS (ITER=1) (NRM,RELC): (  1911.0010     0.32283359E-03 ) :: free surface evolution
ComputeChange: NS (ITER=2) (NRM,RELC): (  1911.0010      0.0000000     ) :: free surface evolution
MAIN: 
MAIN: -------------------------------------
MAIN:  Time: 245/250   490.00000000000000
MAIN: Estimated time left:  2.8 seconds
MAIN: -------------------------------------
MAIN: 
FlowdepthSolver: Gradient of  -0.1000E+01 applied
ComputeChange: NS (ITER=1) (NRM,RELC): (  171.03210     0.12839191E-05 ) :: flowdepth
ComputeChange: NS (ITER=1) (NRM,RELC): (  25.084140     0.36060717E-03 ) :: navier-stokes
ComputeChange: NS (ITER=2) (NRM,RELC): (  25.083180     0.36020991E-03 ) :: navier-stokes
ComputeChange: NS (ITER=3) (NRM,RELC): (  25.083177     0.36211365E-05 ) :: navier-stokes
ComputeChange: NS (ITER=1) (NRM,RELC): (  1911.6228     0.32533278E-03 ) :: free surface evolution
ComputeChange: NS (ITER=2) (NRM,RELC): (  1911.6228     0.11894275E-15 ) :: free surface evolution
MAIN: 
MAIN: -------------------------------------
MAIN:  Time: 246/250   492.00000000000000
MAIN: Estimated time left:  2.3 seconds
MAIN: -------------------------------------
MAIN: 
FlowdepthSolver: Gradient of  -0.1000E+01 applied
ComputeChange: NS (ITER=1) (NRM,RELC): (  171.03188     0.12502577E-05 ) :: flowdepth
ComputeChange: NS (ITER=1) (NRM,RELC): (  25.084099     0.36060015E-03 ) :: navier-stokes
ComputeChange: NS (ITER=2) (NRM,RELC): (  25.083141     0.36020974E-03 ) :: navier-stokes
ComputeChange: NS (ITER=3) (NRM,RELC): (  25.083137     0.36210989E-05 ) :: navier-stokes
ComputeChange: NS (ITER=1) (NRM,RELC): (  1912.2495     0.32782583E-03 ) :: free surface evolution
ComputeChange: NS (ITER=2) (NRM,RELC): (  1912.2495     0.11890377E-15 ) :: free surface evolution
MAIN: 
MAIN: -------------------------------------
MAIN:  Time: 247/250   494.00000000000000
MAIN: Estimated time left:  1.9 seconds
MAIN: -------------------------------------
MAIN: 
FlowdepthSolver: Gradient of  -0.1000E+01 applied
ComputeChange: NS (ITER=1) (NRM,RELC): (  171.03168     0.12175980E-05 ) :: flowdepth
ComputeChange: NS (ITER=1) (NRM,RELC): (  25.084060     0.36059328E-03 ) :: navier-stokes
ComputeChange: NS (ITER=2) (NRM,RELC): (  25.083102     0.36020954E-03 ) :: navier-stokes
ComputeChange: NS (ITER=3) (NRM,RELC): (  25.083098     0.36210618E-05 ) :: navier-stokes
ComputeChange: NS (ITER=1) (NRM,RELC): (  1912.8813     0.33031271E-03 ) :: free surface evolution
ComputeChange: NS (ITER=2) (NRM,RELC): (  1912.8813     0.11886450E-15 ) :: free surface evolution
MAIN: 
MAIN: -------------------------------------
MAIN:  Time: 248/250   496.00000000000000
MAIN: Estimated time left:  1.4 seconds
MAIN: -------------------------------------
MAIN: 
FlowdepthSolver: Gradient of  -0.1000E+01 applied
ComputeChange: NS (ITER=1) (NRM,RELC): (  171.03147     0.11859100E-05 ) :: flowdepth
ComputeChange: NS (ITER=1) (NRM,RELC): (  25.084022     0.36058656E-03 ) :: navier-stokes
ComputeChange: NS (ITER=2) (NRM,RELC): (  25.083065     0.36020930E-03 ) :: navier-stokes
ComputeChange: NS (ITER=3) (NRM,RELC): (  25.083061     0.36210251E-05 ) :: navier-stokes
ComputeChange: NS (ITER=1) (NRM,RELC): (  1913.5180     0.33279341E-03 ) :: free surface evolution
ComputeChange: NS (ITER=2) (NRM,RELC): (  1913.5180     0.11882495E-15 ) :: free surface evolution
MAIN: 
MAIN: -------------------------------------
MAIN:  Time: 249/250   498.00000000000000
MAIN: -------------------------------------
MAIN: 
FlowdepthSolver: Gradient of  -0.1000E+01 applied
ComputeChange: NS (ITER=1) (NRM,RELC): (  171.03128     0.11551646E-05 ) :: flowdepth
ComputeChange: NS (ITER=1) (NRM,RELC): (  25.083985     0.36057997E-03 ) :: navier-stokes
ComputeChange: NS (ITER=2) (NRM,RELC): (  25.083029     0.36020903E-03 ) :: navier-stokes
ComputeChange: NS (ITER=3) (NRM,RELC): (  25.083025     0.36209889E-05 ) :: navier-stokes
ComputeChange: NS (ITER=1) (NRM,RELC): (  1914.1596     0.33526792E-03 ) :: free surface evolution
ComputeChange: NS (ITER=2) (NRM,RELC): (  1914.1596     0.11878512E-15 ) :: free surface evolution
MAIN: 
MAIN: -------------------------------------
MAIN:  Time: 250/250   500.00000000000000
MAIN: -------------------------------------
MAIN: 
FlowdepthSolver: Gradient of  -0.1000E+01 applied
ComputeChange: NS (ITER=1) (NRM,RELC): (  171.03108     0.11253336E-05 ) :: flowdepth
ComputeChange: NS (ITER=1) (NRM,RELC): (  25.083949     0.36057352E-03 ) :: navier-stokes
ComputeChange: NS (ITER=2) (NRM,RELC): (  25.082994     0.36020872E-03 ) :: navier-stokes
ComputeChange: NS (ITER=3) (NRM,RELC): (  25.082990     0.36209531E-05 ) :: navier-stokes
ComputeChange: NS (ITER=1) (NRM,RELC): (  1914.8062     0.33773620E-03 ) :: free surface evolution
ComputeChange: NS (ITER=2) (NRM,RELC): (  1914.8062      0.0000000     ) :: free surface evolution
ElmerSolver: *** Elmer Solver: ALL DONE ***
ElmerSolver: The end
SOLVER TOTAL TIME(CPU,REAL):       186.30      203.59
ELMER SOLVER FINISHED AT: 2021/02/22 13:54:52
